version 2
run simpleNetwork-7-20210726-22:49:21-10765
attr configname simpleNetwork
attr datetime 20210726-22:49:21
attr experiment simpleNetwork
attr inifile omnetpp.ini
attr iterationvars "$nHost=60, $frac=2, $net=\"BRAP\", $back=true, $mlEnable=true, $mlThresh=1500, $bthresh=50, $pwhresh=10, $com=10, $0=0.7, $mov=\"./movements/RWP-0.5.movements\""
attr iterationvarsf nHost=60,frac=2,net=BRAP,back=true,mlEnable=true,mlThresh=1500,bthresh=50,pwhresh=10,com=10,0.7,mov=.#2fmovements#2fRWP-0.5.movements-
attr measurement "$nHost=60, $frac=2, $net=\"BRAP\", $back=true, $mlEnable=true, $mlThresh=1500, $bthresh=50, $pwhresh=10, $com=10, $0=0.7, $mov=\"./movements/RWP-0.5.movements\""
attr network inet.examples.sixgen.simpleNetwork
attr processid 10765
attr repetition 2
attr replication #2
attr resultdir results
attr runnumber 7
attr seedset 2
itervar back true
itervar bthresh 50
itervar com 10
itervar frac 2
itervar mlEnable true
itervar mlThresh 1500
itervar mov "\"./movements/RWP-0.5.movements\""
itervar nHost 60
itervar net "\"BRAP\""
itervar pwhresh 10
param *.numHost 60
param *.sprayFraction 2
param **.wlan[*].bitrate 1Tbps
param **.networkType "\"BRAP\""
param **.backoffEnabled true
param **.mlEnable true
param **.mlThreshold 1500
param *.host[*].routing.batteryThresh 50
param *.host[*].routing.powerThresh 10
param **.wlan[*].radio.transmitter.communicationRange 10m
param *.visualizer.energyStorageVisualizer.displayEnergyStorages true
param *.host[*].numApps 1
param *.host[*].app[0].typename "\"PingApp\""
param *.host[*].app[0].startTime uniform(1s,5s)
param *.host[*].app[0].printPing true
param **.host[*].app[0].destAddr "\"host[\"+string((ancestorIndex(1)+1)%60)+\"]\""
param *.host[*].energyStorage.typename "\"SimpleEpEnergyStorage\""
param *.host[*].wlan[*].radio.energyConsumer.typename "\"StateBasedEpEnergyConsumer\""
param *.host[*].energyManagement.typename "\"SimpleEpEnergyManagement\""
param *.host[*].energyStorage.nominalCapacity 1J
param *.host[*].energyManagement.nodeShutdownCapacity 0
param *.host[*].energyManagement.nodeStartCapacity "0.5 * energyStorage.nominalCapacity"
param *.host[*].energyStorage.initialCapacity "uniform(0.7 * energyStorage.nominalCapacity, energyStorage.nominalCapacity)"
param *.host[*].energyGenerator.typename "\"AlternatingEpEnergyGenerator\""
param *.host[*].energyGenerator.powerGeneration 0mW
param *.host[*].energyGenerator.sleepInterval exponential(25s)
param *.host[*].energyGenerator.generationInterval exponential(25s)
param *.host*.wlan[*].radio.energyConsumer.offPowerConsumption 0mW
param *.host*.wlan[*].radio.energyConsumer.sleepPowerConsumption 1mW
param *.host*.wlan[*].radio.energyConsumer.switchingPowerConsumption 1mW
param *.host*.wlan[*].radio.energyConsumer.receiverIdlePowerConsumption 2mW
param *.host*.wlan[*].radio.energyConsumer.receiverBusyPowerConsumption 5mW
param *.host*.wlan[*].radio.energyConsumer.receiverReceivingPowerConsumption 10mW
param *.host*.wlan[*].radio.energyConsumer.transmitterIdlePowerConsumption 2mW
param *.host*.wlan[*].radio.energyConsumer.transmitterTransmittingPowerConsumption 100mW
param *.host[*].mobility.typename "\"BonnMotionMobility\""
param *.host[*].mobility.traceFile "\"./movements/RWP-0.5.movements\""
param *.host[*].mobility.nodeId -1
param **.wlan[*].typename "\"AckingWirelessInterface\""
param **.wlan[*].mac.headerLength 23B
param **.wlan[*].radio.typename "\"UnitDiskRadio\""
param **.wlan[*].radio.transmitter.headerLength 96b
param **.wlan[*].radio.transmitter.interferenceRange 0m
param **.wlan[*].radio.transmitter.detectionRange 0m
param **.wlan[*].radio.receiver.ignoreInterference true
param **.hasStatus true

scalar simpleNetwork.Oracle simulationEndSignal:last 205
attr interpolationmode none
attr title "Time that the simulation ended, last"
scalar simpleNetwork.Oracle chDowngradeSignal:count 120082
attr interpolationmode none
attr title "Number of downgraded CH, count"
scalar simpleNetwork.Oracle chDowngradeSignal:max 0
attr interpolationmode none
attr title "Number of downgraded CH, max"
scalar simpleNetwork.Oracle chDowngradeSignal:last 0
attr interpolationmode none
attr title "Number of downgraded CH, last"
scalar simpleNetwork.Oracle chUpgradeSignal:count 120082
attr interpolationmode none
attr title "Number of upgraded CH, count"
scalar simpleNetwork.Oracle chUpgradeSignal:max 0
attr interpolationmode none
attr title "Number of upgraded CH, max"
scalar simpleNetwork.Oracle chUpgradeSignal:last 0
attr interpolationmode none
attr title "Number of upgraded CH, last"
scalar simpleNetwork.Oracle numNoChSignal:count 120082
attr interpolationmode none
attr title "Number devices not connected to a CH, count"
scalar simpleNetwork.Oracle numNoChSignal:max 0
attr interpolationmode none
attr title "Number devices not connected to a CH, max"
scalar simpleNetwork.Oracle numNoChSignal:last 0
attr interpolationmode none
attr title "Number devices not connected to a CH, last"
scalar simpleNetwork.Oracle numActiveFullChSignal:count 120082
attr interpolationmode none
attr title "Number of actives full CH, count"
scalar simpleNetwork.Oracle numActiveFullChSignal:max 14
attr interpolationmode none
attr title "Number of actives full CH, max"
scalar simpleNetwork.Oracle numActiveFullChSignal:last 14
attr interpolationmode none
attr title "Number of actives full CH, last"
scalar simpleNetwork.Oracle numActiveSemiChSignal:count 120082
attr interpolationmode none
attr title "Number of actives semi CH, count"
scalar simpleNetwork.Oracle numActiveSemiChSignal:max 0
attr interpolationmode none
attr title "Number of actives semi CH, max"
scalar simpleNetwork.Oracle numActiveSemiChSignal:last 0
attr interpolationmode none
attr title "Number of actives semi CH, last"
scalar simpleNetwork.Oracle numActiveChSignal:count 120082
attr interpolationmode none
attr title "Number of actives CH, count"
scalar simpleNetwork.Oracle numActiveChSignal:max 14
attr interpolationmode none
attr title "Number of actives CH, max"
scalar simpleNetwork.Oracle numActiveChSignal:last 14
attr interpolationmode none
attr title "Number of actives CH, last"
scalar simpleNetwork.Oracle numSemiChSignal:count 120082
attr interpolationmode none
attr title "Number of semi CH, count"
scalar simpleNetwork.Oracle numSemiChSignal:max 0
attr interpolationmode none
attr title "Number of semi CH, max"
scalar simpleNetwork.Oracle numSemiChSignal:last 0
attr interpolationmode none
attr title "Number of semi CH, last"
scalar simpleNetwork.Oracle numChSignal:count 120082
attr interpolationmode none
attr title "Number of elected CH, count"
scalar simpleNetwork.Oracle numChSignal:max 14
attr interpolationmode none
attr title "Number of elected CH, max"
scalar simpleNetwork.Oracle numChSignal:last 14
attr interpolationmode none
attr title "Number of elected CH, last"
scalar simpleNetwork.radioMedium.propagation "Arrival computation count" 1492110
scalar simpleNetwork.radioMedium "transmission count" 25290
scalar simpleNetwork.radioMedium "signal send count" 1492110
scalar simpleNetwork.radioMedium "reception computation count" 1474859
scalar simpleNetwork.radioMedium "interference computation count" 4440068
scalar simpleNetwork.radioMedium "reception decision computation count" 31402
scalar simpleNetwork.radioMedium "listening decision computation count" 2933807
scalar simpleNetwork.radioMedium "reception cache hit" 84.436592467667
attr unit %
scalar simpleNetwork.radioMedium "interference cache hit" 66.666666666667
attr unit %
scalar simpleNetwork.radioMedium "noise cache hit" 0
attr unit %
scalar simpleNetwork.radioMedium "snir cache hit" 50
attr unit %
scalar simpleNetwork.radioMedium "reception decision cache hit" 50
attr unit %
scalar simpleNetwork.radioMedium "reception result cache hit" 0
attr unit %
scalar simpleNetwork.host[0].energyStorage residualEnergyCapacity:last 0.14905798156517
attr interpolationmode linear
attr source residualEnergyCapacityChanged
attr title "Residual energy capacity, last"
scalar simpleNetwork.host[0].lo[0].lo rcvdPkFromHl:count 0
attr interpolationmode none
attr source packetReceivedFromUpper
attr title "packets received from higher layer, count"
scalar simpleNetwork.host[0].lo[0].lo rcvdPkFromHl:sum(packetBytes) 0
attr interpolationmode none
attr source packetReceivedFromUpper
attr title "packets received from higher layer, sum(packetBytes)"
scalar simpleNetwork.host[0].lo[0].lo passedUpPk:count 0
attr interpolationmode none
attr source packetSentToUpper
attr title "packets passed to higher layer, count"
scalar simpleNetwork.host[0].lo[0].lo passedUpPk:sum(packetBytes) 0
attr interpolationmode none
attr source packetSentToUpper
attr title "packets passed to higher layer, sum(packetBytes)"
scalar simpleNetwork.host[0].wlan[0].mac.queue packetPopped:count 844
attr interpolationmode none
attr title "packet popped, count"
scalar simpleNetwork.host[0].wlan[0].mac.queue packetPopped:sum(packetBytes) 43888
attr interpolationmode none
attr title "packet popped, sum(packetBytes)"
statistic simpleNetwork.host[0].wlan[0].mac.queue queueingTime:histogram
field count 844
field mean 0
field stddev 0
field min 0
field max 0
field sum 0
field sqrsum 0
attr interpolationmode none
attr source queueingTime(packetPopped)
attr title "queueing times, histogram"
attr unit s
bin	-inf	0
bin	-0.5	0
bin	-0.48	0
bin	-0.46	0
bin	-0.44	0
bin	-0.42	0
bin	-0.4	0
bin	-0.38	0
bin	-0.36	0
bin	-0.34	0
bin	-0.32	0
bin	-0.3	0
bin	-0.28	0
bin	-0.26	0
bin	-0.24	0
bin	-0.22	0
bin	-0.2	0
bin	-0.18	0
bin	-0.16	0
bin	-0.14	0
bin	-0.12	0
bin	-0.1	0
bin	-0.08	0
bin	-0.06	0
bin	-0.04	0
bin	-0.02	0
bin	0	844
bin	0.02	0
bin	0.04	0
bin	0.06	0
bin	0.08	0
bin	0.1	0
bin	0.12	0
bin	0.14	0
bin	0.16	0
bin	0.18	0
bin	0.2	0
bin	0.22	0
bin	0.24	0
bin	0.26	0
bin	0.28	0
bin	0.3	0
bin	0.32	0
bin	0.34	0
bin	0.36	0
bin	0.38	0
bin	0.4	0
bin	0.42	0
bin	0.44	0
bin	0.46	0
bin	0.48	0
bin	0.5	0
scalar simpleNetwork.host[0].wlan[0].mac.queue queueLength:max 1
attr interpolationmode sample-hold
attr source "count(packetPushed) - count(packetPopped) - count(packetRemoved) - count(packetDropped)"
attr title "queue length, max"
scalar simpleNetwork.host[0].wlan[0].mac.queue queueLength:timeavg 0
attr interpolationmode sample-hold
attr source "count(packetPushed) - count(packetPopped) - count(packetRemoved) - count(packetDropped)"
attr title "queue length, timeavg"
scalar simpleNetwork.host[0].wlan[0].mac.queue packetPushed:count 844
attr interpolationmode none
attr title "packet pushed, count"
scalar simpleNetwork.host[0].wlan[0].mac.queue packetPushed:sum(packetBytes) 43888
attr interpolationmode none
attr title "packet pushed, sum(packetBytes)"
scalar simpleNetwork.host[0].wlan[0].mac.queue packetDropQueueOverflow:count 0
attr interpolationmode none
attr source packetDropReasonIsQueueOverflow(packetDropped)
attr title "packet drops: queue overflow, count"
scalar simpleNetwork.host[0].wlan[0].mac.queue packetDropQueueOverflow:sum(packetBytes) 0
attr interpolationmode none
attr source packetDropReasonIsQueueOverflow(packetDropped)
attr title "packet drops: queue overflow, sum(packetBytes)"
scalar simpleNetwork.host[0].wlan[0].mac.queue packetRemoved:count 0
attr interpolationmode none
attr title "packets removed, count"
scalar simpleNetwork.host[0].wlan[0].mac.queue packetRemoved:sum(packetBytes) 0
attr interpolationmode none
attr title "packets removed, sum(packetBytes)"
scalar simpleNetwork.host[0].wlan[0].mac rcvdPkFromLl:count 875
attr interpolationmode none
attr source packetReceivedFromLower
attr title "packets received from lower layer, count"
scalar simpleNetwork.host[0].wlan[0].mac rcvdPkFromLl:sum(packetBytes) 65625
attr interpolationmode none
attr source packetReceivedFromLower
attr title "packets received from lower layer, sum(packetBytes)"
scalar simpleNetwork.host[0].wlan[0].mac sentDownPk:count 844
attr interpolationmode none
attr source packetSentToLower
attr title "packets sent to lower layer, count"
scalar simpleNetwork.host[0].wlan[0].mac sentDownPk:sum(packetBytes) 63300
attr interpolationmode none
attr source packetSentToLower
attr title "packets sent to lower layer, sum(packetBytes)"
scalar simpleNetwork.host[0].wlan[0].mac rcvdPkFromHl:count 844
attr interpolationmode none
attr source packetReceivedFromUpper
attr title "packets received from higher layer, count"
scalar simpleNetwork.host[0].wlan[0].mac rcvdPkFromHl:sum(packetBytes) 43888
attr interpolationmode none
attr source packetReceivedFromUpper
attr title "packets received from higher layer, sum(packetBytes)"
scalar simpleNetwork.host[0].wlan[0].mac passedUpPk:count 875
attr interpolationmode none
attr source packetSentToUpper
attr title "packets passed to higher layer, count"
scalar simpleNetwork.host[0].wlan[0].mac passedUpPk:sum(packetBytes) 45500
attr interpolationmode none
attr source packetSentToUpper
attr title "packets passed to higher layer, sum(packetBytes)"
scalar simpleNetwork.host[0].wlan[0].mac packetDropIncorrectlyReceived:count 0
attr interpolationmode none
attr source packetDropReasonIsIncorrectlyReceived(packetDropped)
attr title "packet drop: incorrectly received, count"
scalar simpleNetwork.host[0].wlan[0].mac packetDropIncorrectlyReceived:sum(packetBytes) 0
attr interpolationmode none
attr source packetDropReasonIsIncorrectlyReceived(packetDropped)
attr title "packet drop: incorrectly received, sum(packetBytes)"
scalar simpleNetwork.host[0].wlan[0].mac packetDropInterfaceDown:count 0
attr interpolationmode none
attr source packetDropReasonIsInterfaceDown(packetDropped)
attr title "packet drop: interface down, count"
scalar simpleNetwork.host[0].wlan[0].mac packetDropInterfaceDown:sum(packetBytes) 0
attr interpolationmode none
attr source packetDropReasonIsInterfaceDown(packetDropped)
attr title "packet drop: interface down, sum(packetBytes)"
scalar simpleNetwork.host[0].wlan[0].mac packetDropNotAddressedToUs:count 0
attr interpolationmode none
attr source packetDropReasonIsNotAddressedToUs(packetDropped)
attr title "packet drop: not addressed to us, count"
scalar simpleNetwork.host[0].wlan[0].mac packetDropNotAddressedToUs:sum(packetBytes) 0
attr interpolationmode none
attr source packetDropReasonIsNotAddressedToUs(packetDropped)
attr title "packet drop: not addressed to us, sum(packetBytes)"
scalar simpleNetwork.host[0].wlan[0].mac linkBroken:count 0
attr interpolationmode none
attr source linkBroken
attr title "link break, count"
scalar simpleNetwork.host[0].wlan[0].radio radioMode:count 3
attr interpolationmode sample-hold
attr source radioModeChanged
attr title "Radio mode, count"
scalar simpleNetwork.host[0].wlan[0].radio receptionState:count 1769
attr interpolationmode sample-hold
attr source receptionStateChanged
attr title "Radio reception state, count"
scalar simpleNetwork.host[0].wlan[0].radio transmissionState:count 1689
attr interpolationmode sample-hold
attr source transmissionStateChanged
attr title "Radio transmission state, count"
statistic simpleNetwork.host[0].wlan[0].radio minSnir:histogram
field count 0
field mean -nan
field stddev -nan
field min -nan
field max -nan
field sum 0
field sqrsum 0
attr source minimumSnir(packetSentToUpper)
attr title "Min SNIR, histogram"
bin	-inf	0
bin	0	0
bin	1	0
statistic simpleNetwork.host[0].wlan[0].radio packetErrorRate:histogram
field count 875
field mean 0.32228571428571
field stddev 0.46761900989079
field min 0
field max 1
field sum 282
field sqrsum 282
attr source packetErrorRate(packetSentToUpper)
attr title "Packet error rate, histogram"
bin	-inf	0
bin	-0.5	0
bin	-0.48	0
bin	-0.46	0
bin	-0.44	0
bin	-0.42	0
bin	-0.4	0
bin	-0.38	0
bin	-0.36	0
bin	-0.34	0
bin	-0.32	0
bin	-0.3	0
bin	-0.28	0
bin	-0.26	0
bin	-0.24	0
bin	-0.22	0
bin	-0.2	0
bin	-0.18	0
bin	-0.16	0
bin	-0.14	0
bin	-0.12	0
bin	-0.1	0
bin	-0.08	0
bin	-0.06	0
bin	-0.04	0
bin	-0.02	0
bin	0	593
bin	0.02	0
bin	0.04	0
bin	0.06	0
bin	0.08	0
bin	0.1	0
bin	0.12	0
bin	0.14	0
bin	0.16	0
bin	0.18	0
bin	0.2	0
bin	0.22	0
bin	0.24	0
bin	0.26	0
bin	0.28	0
bin	0.3	0
bin	0.32	0
bin	0.34	0
bin	0.36	0
bin	0.38	0
bin	0.4	0
bin	0.42	0
bin	0.44	0
bin	0.46	0
bin	0.48	0
bin	0.5	0
bin	0.52	0
bin	0.54	0
bin	0.56	0
bin	0.58	0
bin	0.6	0
bin	0.62	0
bin	0.64	0
bin	0.66	0
bin	0.68	0
bin	0.7	0
bin	0.72	0
bin	0.74	0
bin	0.76	0
bin	0.78	0
bin	0.8	0
bin	0.82	0
bin	0.84	0
bin	0.86	0
bin	0.88	0
bin	0.9	0
bin	0.92	0
bin	0.94	0
bin	0.96	0
bin	0.98	0
bin	1	282
bin	1.02	0
statistic simpleNetwork.host[0].wlan[0].radio bitErrorRate:histogram
field count 875
field mean 0.32228571428571
field stddev 0.46761900989079
field min 0
field max 1
field sum 282
field sqrsum 282
attr source bitErrorRate(packetSentToUpper)
attr title "Bit error rate, histogram"
bin	-inf	0
bin	-0.5	0
bin	-0.48	0
bin	-0.46	0
bin	-0.44	0
bin	-0.42	0
bin	-0.4	0
bin	-0.38	0
bin	-0.36	0
bin	-0.34	0
bin	-0.32	0
bin	-0.3	0
bin	-0.28	0
bin	-0.26	0
bin	-0.24	0
bin	-0.22	0
bin	-0.2	0
bin	-0.18	0
bin	-0.16	0
bin	-0.14	0
bin	-0.12	0
bin	-0.1	0
bin	-0.08	0
bin	-0.06	0
bin	-0.04	0
bin	-0.02	0
bin	0	593
bin	0.02	0
bin	0.04	0
bin	0.06	0
bin	0.08	0
bin	0.1	0
bin	0.12	0
bin	0.14	0
bin	0.16	0
bin	0.18	0
bin	0.2	0
bin	0.22	0
bin	0.24	0
bin	0.26	0
bin	0.28	0
bin	0.3	0
bin	0.32	0
bin	0.34	0
bin	0.36	0
bin	0.38	0
bin	0.4	0
bin	0.42	0
bin	0.44	0
bin	0.46	0
bin	0.48	0
bin	0.5	0
bin	0.52	0
bin	0.54	0
bin	0.56	0
bin	0.58	0
bin	0.6	0
bin	0.62	0
bin	0.64	0
bin	0.66	0
bin	0.68	0
bin	0.7	0
bin	0.72	0
bin	0.74	0
bin	0.76	0
bin	0.78	0
bin	0.8	0
bin	0.82	0
bin	0.84	0
bin	0.86	0
bin	0.88	0
bin	0.9	0
bin	0.92	0
bin	0.94	0
bin	0.96	0
bin	0.98	0
bin	1	282
bin	1.02	0
statistic simpleNetwork.host[0].wlan[0].radio symbolErrorRate:histogram
field count 875
field mean 0.32228571428571
field stddev 0.46761900989079
field min 0
field max 1
field sum 282
field sqrsum 282
attr source symbolErrorRate(packetSentToUpper)
attr title "Symbol error rate, histogram"
bin	-inf	0
bin	-0.5	0
bin	-0.48	0
bin	-0.46	0
bin	-0.44	0
bin	-0.42	0
bin	-0.4	0
bin	-0.38	0
bin	-0.36	0
bin	-0.34	0
bin	-0.32	0
bin	-0.3	0
bin	-0.28	0
bin	-0.26	0
bin	-0.24	0
bin	-0.22	0
bin	-0.2	0
bin	-0.18	0
bin	-0.16	0
bin	-0.14	0
bin	-0.12	0
bin	-0.1	0
bin	-0.08	0
bin	-0.06	0
bin	-0.04	0
bin	-0.02	0
bin	0	593
bin	0.02	0
bin	0.04	0
bin	0.06	0
bin	0.08	0
bin	0.1	0
bin	0.12	0
bin	0.14	0
bin	0.16	0
bin	0.18	0
bin	0.2	0
bin	0.22	0
bin	0.24	0
bin	0.26	0
bin	0.28	0
bin	0.3	0
bin	0.32	0
bin	0.34	0
bin	0.36	0
bin	0.38	0
bin	0.4	0
bin	0.42	0
bin	0.44	0
bin	0.46	0
bin	0.48	0
bin	0.5	0
bin	0.52	0
bin	0.54	0
bin	0.56	0
bin	0.58	0
bin	0.6	0
bin	0.62	0
bin	0.64	0
bin	0.66	0
bin	0.68	0
bin	0.7	0
bin	0.72	0
bin	0.74	0
bin	0.76	0
bin	0.78	0
bin	0.8	0
bin	0.82	0
bin	0.84	0
bin	0.86	0
bin	0.88	0
bin	0.9	0
bin	0.92	0
bin	0.94	0
bin	0.96	0
bin	0.98	0
bin	1	282
bin	1.02	0
scalar simpleNetwork.host[0].ipv4.ip packetDropAddressResolutionFailed:count 0
attr interpolationmode none
attr source packetDropReasonIsAddressResolutionFailed(packetDropped)
attr title "packet drop: address resolution failed, count"
scalar simpleNetwork.host[0].ipv4.ip packetDropAddressResolutionFailed:sum(packetBytes) 0
attr interpolationmode none
attr source packetDropReasonIsAddressResolutionFailed(packetDropped)
attr title "packet drop: address resolution failed, sum(packetBytes)"
scalar simpleNetwork.host[0].ipv4.ip packetDropHopLimitReached:count 0
attr interpolationmode none
attr source packetDropReasonIsHopLimitReached(packetDropped)
attr title "packet drop: hop limit reached, count"
scalar simpleNetwork.host[0].ipv4.ip packetDropHopLimitReached:sum(packetBytes) 0
attr interpolationmode none
attr source packetDropReasonIsHopLimitReached(packetDropped)
attr title "packet drop: hop limit reached, sum(packetBytes)"
scalar simpleNetwork.host[0].ipv4.ip packetDropForwardingDisabled:count 0
attr interpolationmode none
attr source packetDropReasonIsForwardingDisabled(packetDropped)
attr title "packet drop: forwarding disabled, count"
scalar simpleNetwork.host[0].ipv4.ip packetDropForwardingDisabled:sum(packetBytes) 0
attr interpolationmode none
attr source packetDropReasonIsForwardingDisabled(packetDropped)
attr title "packet drop: forwarding disabled, sum(packetBytes)"
scalar simpleNetwork.host[0].ipv4.ip packetDropNoInterfaceFound:count 0
attr interpolationmode none
attr source packetDropReasonIsNoInterfaceFound(packetDropped)
attr title "packet drop: no interface found, count"
scalar simpleNetwork.host[0].ipv4.ip packetDropNoInterfaceFound:sum(packetBytes) 0
attr interpolationmode none
attr source packetDropReasonIsNoInterfaceFound(packetDropped)
attr title "packet drop: no interface found, sum(packetBytes)"
scalar simpleNetwork.host[0].ipv4.ip packetDropNoRouteFound:count 0
attr interpolationmode none
attr source packetDropReasonIsNoRouteFound(packetDropped)
attr title "packet drop: no route found, count"
scalar simpleNetwork.host[0].ipv4.ip packetDropNoRouteFound:sum(packetBytes) 0
attr interpolationmode none
attr source packetDropReasonIsNoRouteFound(packetDropped)
attr title "packet drop: no route found, sum(packetBytes)"
scalar simpleNetwork.host[0].ipv4.ip packetDropUndefined:count 0
attr interpolationmode none
attr source packetDropReasonIsUndefined(packetDropped)
attr title "packet drop: undefined, count"
scalar simpleNetwork.host[0].ipv4.ip packetDropUndefined:sum(packetBytes) 0
attr interpolationmode none
attr source packetDropReasonIsUndefined(packetDropped)
attr title "packet drop: undefined, sum(packetBytes)"
scalar simpleNetwork.host[0].ipv4.arp arpResolutionFailed:count 0
attr title "ARP failed resolutions, count"
scalar simpleNetwork.host[0].ipv4.arp arpResolutionCompleted:count 0
attr title "ARP completed resolutions, count"
scalar simpleNetwork.host[0].ipv4.arp arpResolutionInitiated:count 0
attr title "ARP initiated resolutions, count"
scalar simpleNetwork.host[0].ipv4.arp arpReplySent:count 0
attr source arpReplySent
attr title "ARP replies sent, count"
scalar simpleNetwork.host[0].ipv4.arp arpReplySent:sum(packetBytes) 0
attr source arpReplySent
attr title "ARP replies sent, sum(packetBytes)"
scalar simpleNetwork.host[0].ipv4.arp arpRequestSent:count 0
attr source arpRequestSent
attr title "ARP request sent, count"
scalar simpleNetwork.host[0].ipv4.arp arpRequestSent:sum(packetBytes) 0
attr source arpRequestSent
attr title "ARP request sent, sum(packetBytes)"
scalar simpleNetwork.host[0].udp packetReceived:count 875
attr interpolationmode none
attr source packetReceived
attr title "packets received, count"
scalar simpleNetwork.host[0].udp packetReceived:sum(packetBytes) 28000
attr interpolationmode none
attr source packetReceived
attr title "packets received, sum(packetBytes)"
scalar simpleNetwork.host[0].udp packetSent:count 844
attr interpolationmode none
attr source packetSent
attr title "packets sent, count"
scalar simpleNetwork.host[0].udp packetSent:sum(packetBytes) 27008
attr interpolationmode none
attr source packetSent
attr title "packets sent, sum(packetBytes)"
scalar simpleNetwork.host[0].udp passedUpPk:count 875
attr interpolationmode none
attr source packetSentToUpper
attr title "packets passed up, count"
scalar simpleNetwork.host[0].udp droppedPkWrongPort:count 0
attr interpolationmode none
attr source packetDropReasonIsNoPortFound(packetDropped)
attr title "packets dropped (wrong port), count"
scalar simpleNetwork.host[0].udp droppedPkBadChecksum:count 0
attr interpolationmode none
attr source packetDropReasonIsIncorrectlyReceived(packetDropped)
attr title "packets dropped (checksum error), count"
scalar simpleNetwork.host[0].app[0] "Pings sent" 200
scalar simpleNetwork.host[0].app[0] "ping loss rate (%)" 100
scalar simpleNetwork.host[0].app[0] "ping out-of-order rate (%)" 0
scalar simpleNetwork.host[0].app[0] pingRxSeq:count 0
attr interpolationmode none
attr title "ping rx seq, count"
scalar simpleNetwork.host[0].app[0] pingTxSeq:count 200
attr interpolationmode none
attr title "ping tx seq, count"
scalar simpleNetwork.host[0].app[0] numOutOfOrderArrivals:last nan
attr interpolationmode none
attr title "ping out-of-order arrivals, last"
scalar simpleNetwork.host[0].app[0] numLost:last nan
attr interpolationmode none
attr title "pings lost, last"
statistic simpleNetwork.host[0].app[0] rtt:histogram
field count 0
field mean -nan
field stddev -nan
field min -nan
field max -nan
field sum 0
field sqrsum 0
attr interpolationmode none
attr title "ping round-trip time, histogram"
attr unit s
bin	-inf	0
bin	0	0
bin	1	0
scalar simpleNetwork.host[0].routing nodeEndingSignal:count 0
attr interpolationmode none
attr title "Node end, count"
scalar simpleNetwork.host[0].routing nodeEndingSignal:max -nan
attr interpolationmode none
attr title "Node end, max"
scalar simpleNetwork.host[0].routing nodeEndingSignal:last nan
attr interpolationmode none
attr title "Node end, last"
scalar simpleNetwork.host[0].routing batteryDecaySignal:count 2038
attr interpolationmode none
attr title "Battery decay, count"
scalar simpleNetwork.host[0].routing batteryDecaySignal:max 96
attr interpolationmode none
attr title "Battery decay, max"
scalar simpleNetwork.host[0].routing batteryDecaySignal:last 15
attr interpolationmode none
attr title "Battery decay, last"
scalar simpleNetwork.host[0].routing powerThreshSignal:count 0
attr interpolationmode none
attr title "Power thresh, count"
scalar simpleNetwork.host[0].routing powerThreshSignal:max -nan
attr interpolationmode none
attr title "Power thresh, max"
scalar simpleNetwork.host[0].routing powerThreshSignal:last nan
attr interpolationmode none
attr title "Power thresh, last"
scalar simpleNetwork.host[0].routing distSignal:count 0
attr interpolationmode none
attr title "Distance from sender to destination, count"
scalar simpleNetwork.host[0].routing distSignal:max -nan
attr interpolationmode none
attr title "Distance from sender to destination, max"
scalar simpleNetwork.host[0].routing distSignal:last nan
attr interpolationmode none
attr title "Distance from sender to destination, last"
scalar simpleNetwork.host[0].routing sentBrapMsgSignal:count 102
attr interpolationmode none
attr title "Number of CAIN BRAP messages sent, count"
scalar simpleNetwork.host[0].routing sentBrapMsgSignal:max 102
attr interpolationmode none
attr title "Number of CAIN BRAP messages sent, max"
scalar simpleNetwork.host[0].routing sentBrapMsgSignal:last 102
attr interpolationmode none
attr title "Number of CAIN BRAP messages sent, last"
scalar simpleNetwork.host[0].routing recBrapMsgSignal:count 0
attr interpolationmode none
attr title "Number of CAIN BRAP messages received, count"
scalar simpleNetwork.host[0].routing recBrapMsgSignal:max -nan
attr interpolationmode none
attr title "Number of CAIN BRAP messages received, max"
scalar simpleNetwork.host[0].routing recBrapMsgSignal:last nan
attr interpolationmode none
attr title "Number of CAIN BRAP messages received, last"
scalar simpleNetwork.host[0].routing sentSprMsgSignal:count 0
attr interpolationmode none
attr title "Number of CAIN SPRAY messages sent, count"
scalar simpleNetwork.host[0].routing sentSprMsgSignal:max -nan
attr interpolationmode none
attr title "Number of CAIN SPRAY messages sent, max"
scalar simpleNetwork.host[0].routing sentSprMsgSignal:last nan
attr interpolationmode none
attr title "Number of CAIN SPRAY messages sent, last"
scalar simpleNetwork.host[0].routing recSprMsgSignal:count 0
attr interpolationmode none
attr title "Number of CAIN SPRAY messages received, count"
scalar simpleNetwork.host[0].routing recSprMsgSignal:max -nan
attr interpolationmode none
attr title "Number of CAIN SPRAY messages received, max"
scalar simpleNetwork.host[0].routing recSprMsgSignal:last nan
attr interpolationmode none
attr title "Number of CAIN SPRAY messages received, last"
scalar simpleNetwork.host[0].routing sentLarMsgSignal:count 0
attr interpolationmode none
attr title "Number of CAIN LAR messages sent, count"
scalar simpleNetwork.host[0].routing sentLarMsgSignal:max -nan
attr interpolationmode none
attr title "Number of CAIN LAR messages sent, max"
scalar simpleNetwork.host[0].routing sentLarMsgSignal:last nan
attr interpolationmode none
attr title "Number of CAIN LAR messages sent, last"
scalar simpleNetwork.host[0].routing recLarMsgSignal:count 0
attr interpolationmode none
attr title "Number of CAIN LAR messages received, count"
scalar simpleNetwork.host[0].routing recLarMsgSignal:max -nan
attr interpolationmode none
attr title "Number of CAIN LAR messages received, max"
scalar simpleNetwork.host[0].routing recLarMsgSignal:last nan
attr interpolationmode none
attr title "Number of CAIN LAR messages received, last"
scalar simpleNetwork.host[0].routing sentCainRREQFwdMsgSignal:count 0
attr interpolationmode none
attr title "Number of CAIN RREQFWD messages sent, count"
scalar simpleNetwork.host[0].routing sentCainRREQFwdMsgSignal:max -nan
attr interpolationmode none
attr title "Number of CAIN RREQFWD messages sent, max"
scalar simpleNetwork.host[0].routing sentCainRREQFwdMsgSignal:last nan
attr interpolationmode none
attr title "Number of CAIN RREQFWD messages sent, last"
scalar simpleNetwork.host[0].routing recCainRREQFwdMsgSignal:count 0
attr interpolationmode none
attr title "Number of CAIN RREQFWD messages received, count"
scalar simpleNetwork.host[0].routing recCainRREQFwdMsgSignal:max -nan
attr interpolationmode none
attr title "Number of CAIN RREQFWD messages received, max"
scalar simpleNetwork.host[0].routing recCainRREQFwdMsgSignal:last nan
attr interpolationmode none
attr title "Number of CAIN RREQFWD messages received, last"
scalar simpleNetwork.host[0].routing recCainRREPMsgSignal:count 0
attr interpolationmode none
attr title "Number of CAIN RREP messages received, count"
scalar simpleNetwork.host[0].routing recCainRREPMsgSignal:max -nan
attr interpolationmode none
attr title "Number of CAIN RREP messages received, max"
scalar simpleNetwork.host[0].routing recCainRREPMsgSignal:last nan
attr interpolationmode none
attr title "Number of CAIN RREP messages received, last"
scalar simpleNetwork.host[0].routing sentCainRREPMsgSignal:count 0
attr interpolationmode none
attr title "Number of CAIN RREP messages sent, count"
scalar simpleNetwork.host[0].routing sentCainRREPMsgSignal:max -nan
attr interpolationmode none
attr title "Number of CAIN RREP messages sent, max"
scalar simpleNetwork.host[0].routing sentCainRREPMsgSignal:last nan
attr interpolationmode none
attr title "Number of CAIN RREP messages sent, last"
scalar simpleNetwork.host[0].routing recCainRREQMsgSignal:count 0
attr interpolationmode none
attr title "Number of CAIN RREQ messages received, count"
scalar simpleNetwork.host[0].routing recCainRREQMsgSignal:max -nan
attr interpolationmode none
attr title "Number of CAIN RREQ messages received, max"
scalar simpleNetwork.host[0].routing recCainRREQMsgSignal:last nan
attr interpolationmode none
attr title "Number of CAIN RREQ messages received, last"
scalar simpleNetwork.host[0].routing sentCainRREQMsgSignal:count 0
attr interpolationmode none
attr title "Number of CAIN RREQ messages sent, count"
scalar simpleNetwork.host[0].routing sentCainRREQMsgSignal:max -nan
attr interpolationmode none
attr title "Number of CAIN RREQ messages sent, max"
scalar simpleNetwork.host[0].routing sentCainRREQMsgSignal:last nan
attr interpolationmode none
attr title "Number of CAIN RREQ messages sent, last"
scalar simpleNetwork.host[0].routing recCainErrMsgSignal:count 0
attr interpolationmode none
attr title "Number of CAIN ERR messages received, count"
scalar simpleNetwork.host[0].routing recCainErrMsgSignal:max -nan
attr interpolationmode none
attr title "Number of CAIN ERR messages received, max"
scalar simpleNetwork.host[0].routing recCainErrMsgSignal:last nan
attr interpolationmode none
attr title "Number of CAIN ERR messages received, last"
scalar simpleNetwork.host[0].routing sentCainErrMsgSignal:count 0
attr interpolationmode none
attr title "Number of CAIN ERR messages sent, count"
scalar simpleNetwork.host[0].routing sentCainErrMsgSignal:max -nan
attr interpolationmode none
attr title "Number of CAIN ERR messages sent, max"
scalar simpleNetwork.host[0].routing sentCainErrMsgSignal:last nan
attr interpolationmode none
attr title "Number of CAIN ERR messages sent, last"
scalar simpleNetwork.host[0].routing recCainHopMsgSignal:count 0
attr interpolationmode none
attr title "Number of CAIN HOP messages received, count"
scalar simpleNetwork.host[0].routing recCainHopMsgSignal:max -nan
attr interpolationmode none
attr title "Number of CAIN HOP messages received, max"
scalar simpleNetwork.host[0].routing recCainHopMsgSignal:last nan
attr interpolationmode none
attr title "Number of CAIN HOP messages received, last"
scalar simpleNetwork.host[0].routing sentCainHopMsgSignal:count 0
attr interpolationmode none
attr title "Number of CAIN HOP messages sent, count"
scalar simpleNetwork.host[0].routing sentCainHopMsgSignal:max -nan
attr interpolationmode none
attr title "Number of CAIN HOP messages sent, max"
scalar simpleNetwork.host[0].routing sentCainHopMsgSignal:last nan
attr interpolationmode none
attr title "Number of CAIN HOP messages sent, last"
scalar simpleNetwork.host[0].routing recCainRespMsgSignal:count 0
attr interpolationmode none
attr title "Number of CAIN RESP messages received, count"
scalar simpleNetwork.host[0].routing recCainRespMsgSignal:max -nan
attr interpolationmode none
attr title "Number of CAIN RESP messages received, max"
scalar simpleNetwork.host[0].routing recCainRespMsgSignal:last nan
attr interpolationmode none
attr title "Number of CAIN RESP messages received, last"
scalar simpleNetwork.host[0].routing sentCainRespMsgSignal:count 0
attr interpolationmode none
attr title "Number of CAIN RESP messages sent, count"
scalar simpleNetwork.host[0].routing sentCainRespMsgSignal:max -nan
attr interpolationmode none
attr title "Number of CAIN RESP messages sent, max"
scalar simpleNetwork.host[0].routing sentCainRespMsgSignal:last nan
attr interpolationmode none
attr title "Number of CAIN RESP messages sent, last"
scalar simpleNetwork.host[0].routing recCainReqMsgSignal:count 0
attr interpolationmode none
attr title "Number of CAIN REQ messages received, count"
scalar simpleNetwork.host[0].routing recCainReqMsgSignal:max -nan
attr interpolationmode none
attr title "Number of CAIN REQ messages received, max"
scalar simpleNetwork.host[0].routing recCainReqMsgSignal:last nan
attr interpolationmode none
attr title "Number of CAIN REQ messages received, last"
scalar simpleNetwork.host[0].routing sentCainReqMsgSignal:count 0
attr interpolationmode none
attr title "Number of CAIN REQ messages sent, count"
scalar simpleNetwork.host[0].routing sentCainReqMsgSignal:max -nan
attr interpolationmode none
attr title "Number of CAIN REQ messages sent, max"
scalar simpleNetwork.host[0].routing sentCainReqMsgSignal:last nan
attr interpolationmode none
attr title "Number of CAIN REQ messages sent, last"
scalar simpleNetwork.host[0].routing sentCainFwdMsgSignal:count 0
attr interpolationmode none
attr title "Number of CAIN FWD message sent, count"
scalar simpleNetwork.host[0].routing sentCainFwdMsgSignal:max -nan
attr interpolationmode none
attr title "Number of CAIN FWD message sent, max"
scalar simpleNetwork.host[0].routing sentCainFwdMsgSignal:last nan
attr interpolationmode none
attr title "Number of CAIN FWD message sent, last"
scalar simpleNetwork.host[0].routing recCainFwdMsgSignal:mean -nan
attr interpolationmode none
attr title "Number of CAIN FWD message received, mean"
scalar simpleNetwork.host[0].routing recCainFwdMsgSignal:count 0
attr interpolationmode none
attr title "Number of CAIN FWD message received, count"
scalar simpleNetwork.host[0].routing recCainFwdMsgSignal:max -nan
attr interpolationmode none
attr title "Number of CAIN FWD message received, max"
scalar simpleNetwork.host[0].routing recCainFwdMsgSignal:last nan
attr interpolationmode none
attr title "Number of CAIN FWD message received, last"
scalar simpleNetwork.host[0].routing cainMsgSignal:count 0
attr interpolationmode none
attr title "Number of CAIN messages received, count"
scalar simpleNetwork.host[0].routing cainMsgSignal:max -nan
attr interpolationmode none
attr title "Number of CAIN messages received, max"
scalar simpleNetwork.host[0].routing cainMsgSignal:last nan
attr interpolationmode none
attr title "Number of CAIN messages received, last"
scalar simpleNetwork.host[0].routing connectedDevsSignal:count 0
attr interpolationmode none
attr title "Number of connected devices to a CH, count"
scalar simpleNetwork.host[0].routing connectedDevsSignal:max -nan
attr interpolationmode none
attr title "Number of connected devices to a CH, max"
scalar simpleNetwork.host[0].routing connectedDevsSignal:last nan
attr interpolationmode none
attr title "Number of connected devices to a CH, last"
scalar simpleNetwork.host[1].energyStorage residualEnergyCapacity:last 0
attr interpolationmode linear
attr source residualEnergyCapacityChanged
attr title "Residual energy capacity, last"
scalar simpleNetwork.host[1].lo[0].lo rcvdPkFromHl:count 0
attr interpolationmode none
attr source packetReceivedFromUpper
attr title "packets received from higher layer, count"
scalar simpleNetwork.host[1].lo[0].lo rcvdPkFromHl:sum(packetBytes) 0
attr interpolationmode none
attr source packetReceivedFromUpper
attr title "packets received from higher layer, sum(packetBytes)"
scalar simpleNetwork.host[1].lo[0].lo passedUpPk:count 0
attr interpolationmode none
attr source packetSentToUpper
attr title "packets passed to higher layer, count"
scalar simpleNetwork.host[1].lo[0].lo passedUpPk:sum(packetBytes) 0
attr interpolationmode none
attr source packetSentToUpper
attr title "packets passed to higher layer, sum(packetBytes)"
scalar simpleNetwork.host[1].wlan[0].mac.queue packetPopped:count 399
attr interpolationmode none
attr title "packet popped, count"
scalar simpleNetwork.host[1].wlan[0].mac.queue packetPopped:sum(packetBytes) 20748
attr interpolationmode none
attr title "packet popped, sum(packetBytes)"
statistic simpleNetwork.host[1].wlan[0].mac.queue queueingTime:histogram
field count 399
field mean 0
field stddev 0
field min 0
field max 0
field sum 0
field sqrsum 0
attr interpolationmode none
attr source queueingTime(packetPopped)
attr title "queueing times, histogram"
attr unit s
bin	-inf	0
bin	-0.5	0
bin	-0.48	0
bin	-0.46	0
bin	-0.44	0
bin	-0.42	0
bin	-0.4	0
bin	-0.38	0
bin	-0.36	0
bin	-0.34	0
bin	-0.32	0
bin	-0.3	0
bin	-0.28	0
bin	-0.26	0
bin	-0.24	0
bin	-0.22	0
bin	-0.2	0
bin	-0.18	0
bin	-0.16	0
bin	-0.14	0
bin	-0.12	0
bin	-0.1	0
bin	-0.08	0
bin	-0.06	0
bin	-0.04	0
bin	-0.02	0
bin	0	399
bin	0.02	0
bin	0.04	0
bin	0.06	0
bin	0.08	0
bin	0.1	0
bin	0.12	0
bin	0.14	0
bin	0.16	0
bin	0.18	0
bin	0.2	0
bin	0.22	0
bin	0.24	0
bin	0.26	0
bin	0.28	0
bin	0.3	0
bin	0.32	0
bin	0.34	0
bin	0.36	0
bin	0.38	0
bin	0.4	0
bin	0.42	0
bin	0.44	0
bin	0.46	0
bin	0.48	0
bin	0.5	0
scalar simpleNetwork.host[1].wlan[0].mac.queue queueLength:max 1
attr interpolationmode sample-hold
attr source "count(packetPushed) - count(packetPopped) - count(packetRemoved) - count(packetDropped)"
attr title "queue length, max"
scalar simpleNetwork.host[1].wlan[0].mac.queue queueLength:timeavg 0
attr interpolationmode sample-hold
attr source "count(packetPushed) - count(packetPopped) - count(packetRemoved) - count(packetDropped)"
attr title "queue length, timeavg"
scalar simpleNetwork.host[1].wlan[0].mac.queue packetPushed:count 399
attr interpolationmode none
attr title "packet pushed, count"
scalar simpleNetwork.host[1].wlan[0].mac.queue packetPushed:sum(packetBytes) 20748
attr interpolationmode none
attr title "packet pushed, sum(packetBytes)"
scalar simpleNetwork.host[1].wlan[0].mac.queue packetDropQueueOverflow:count 0
attr interpolationmode none
attr source packetDropReasonIsQueueOverflow(packetDropped)
attr title "packet drops: queue overflow, count"
scalar simpleNetwork.host[1].wlan[0].mac.queue packetDropQueueOverflow:sum(packetBytes) 0
attr interpolationmode none
attr source packetDropReasonIsQueueOverflow(packetDropped)
attr title "packet drops: queue overflow, sum(packetBytes)"
scalar simpleNetwork.host[1].wlan[0].mac.queue packetRemoved:count 0
attr interpolationmode none
attr title "packets removed, count"
scalar simpleNetwork.host[1].wlan[0].mac.queue packetRemoved:sum(packetBytes) 0
attr interpolationmode none
attr title "packets removed, sum(packetBytes)"
scalar simpleNetwork.host[1].wlan[0].mac rcvdPkFromLl:count 347
attr interpolationmode none
attr source packetReceivedFromLower
attr title "packets received from lower layer, count"
scalar simpleNetwork.host[1].wlan[0].mac rcvdPkFromLl:sum(packetBytes) 26025
attr interpolationmode none
attr source packetReceivedFromLower
attr title "packets received from lower layer, sum(packetBytes)"
scalar simpleNetwork.host[1].wlan[0].mac sentDownPk:count 399
attr interpolationmode none
attr source packetSentToLower
attr title "packets sent to lower layer, count"
scalar simpleNetwork.host[1].wlan[0].mac sentDownPk:sum(packetBytes) 29925
attr interpolationmode none
attr source packetSentToLower
attr title "packets sent to lower layer, sum(packetBytes)"
scalar simpleNetwork.host[1].wlan[0].mac rcvdPkFromHl:count 399
attr interpolationmode none
attr source packetReceivedFromUpper
attr title "packets received from higher layer, count"
scalar simpleNetwork.host[1].wlan[0].mac rcvdPkFromHl:sum(packetBytes) 20748
attr interpolationmode none
attr source packetReceivedFromUpper
attr title "packets received from higher layer, sum(packetBytes)"
scalar simpleNetwork.host[1].wlan[0].mac passedUpPk:count 347
attr interpolationmode none
attr source packetSentToUpper
attr title "packets passed to higher layer, count"
scalar simpleNetwork.host[1].wlan[0].mac passedUpPk:sum(packetBytes) 18044
attr interpolationmode none
attr source packetSentToUpper
attr title "packets passed to higher layer, sum(packetBytes)"
scalar simpleNetwork.host[1].wlan[0].mac packetDropIncorrectlyReceived:count 0
attr interpolationmode none
attr source packetDropReasonIsIncorrectlyReceived(packetDropped)
attr title "packet drop: incorrectly received, count"
scalar simpleNetwork.host[1].wlan[0].mac packetDropIncorrectlyReceived:sum(packetBytes) 0
attr interpolationmode none
attr source packetDropReasonIsIncorrectlyReceived(packetDropped)
attr title "packet drop: incorrectly received, sum(packetBytes)"
scalar simpleNetwork.host[1].wlan[0].mac packetDropInterfaceDown:count 0
attr interpolationmode none
attr source packetDropReasonIsInterfaceDown(packetDropped)
attr title "packet drop: interface down, count"
scalar simpleNetwork.host[1].wlan[0].mac packetDropInterfaceDown:sum(packetBytes) 0
attr interpolationmode none
attr source packetDropReasonIsInterfaceDown(packetDropped)
attr title "packet drop: interface down, sum(packetBytes)"
scalar simpleNetwork.host[1].wlan[0].mac packetDropNotAddressedToUs:count 0
attr interpolationmode none
attr source packetDropReasonIsNotAddressedToUs(packetDropped)
attr title "packet drop: not addressed to us, count"
scalar simpleNetwork.host[1].wlan[0].mac packetDropNotAddressedToUs:sum(packetBytes) 0
attr interpolationmode none
attr source packetDropReasonIsNotAddressedToUs(packetDropped)
attr title "packet drop: not addressed to us, sum(packetBytes)"
scalar simpleNetwork.host[1].wlan[0].mac linkBroken:count 0
attr interpolationmode none
attr source linkBroken
attr title "link break, count"
scalar simpleNetwork.host[1].wlan[0].radio radioMode:count 4
attr interpolationmode sample-hold
attr source radioModeChanged
attr title "Radio mode, count"
scalar simpleNetwork.host[1].wlan[0].radio receptionState:count 696
attr interpolationmode sample-hold
attr source receptionStateChanged
attr title "Radio reception state, count"
scalar simpleNetwork.host[1].wlan[0].radio transmissionState:count 800
attr interpolationmode sample-hold
attr source transmissionStateChanged
attr title "Radio transmission state, count"
statistic simpleNetwork.host[1].wlan[0].radio minSnir:histogram
field count 0
field mean -nan
field stddev -nan
field min -nan
field max -nan
field sum 0
field sqrsum 0
attr source minimumSnir(packetSentToUpper)
attr title "Min SNIR, histogram"
bin	-inf	0
bin	0	0
bin	1	0
statistic simpleNetwork.host[1].wlan[0].radio packetErrorRate:histogram
field count 347
field mean 0
field stddev 0
field min 0
field max 0
field sum 0
field sqrsum 0
attr source packetErrorRate(packetSentToUpper)
attr title "Packet error rate, histogram"
bin	-inf	0
bin	-0.5	0
bin	-0.48	0
bin	-0.46	0
bin	-0.44	0
bin	-0.42	0
bin	-0.4	0
bin	-0.38	0
bin	-0.36	0
bin	-0.34	0
bin	-0.32	0
bin	-0.3	0
bin	-0.28	0
bin	-0.26	0
bin	-0.24	0
bin	-0.22	0
bin	-0.2	0
bin	-0.18	0
bin	-0.16	0
bin	-0.14	0
bin	-0.12	0
bin	-0.1	0
bin	-0.08	0
bin	-0.06	0
bin	-0.04	0
bin	-0.02	0
bin	0	347
bin	0.02	0
bin	0.04	0
bin	0.06	0
bin	0.08	0
bin	0.1	0
bin	0.12	0
bin	0.14	0
bin	0.16	0
bin	0.18	0
bin	0.2	0
bin	0.22	0
bin	0.24	0
bin	0.26	0
bin	0.28	0
bin	0.3	0
bin	0.32	0
bin	0.34	0
bin	0.36	0
bin	0.38	0
bin	0.4	0
bin	0.42	0
bin	0.44	0
bin	0.46	0
bin	0.48	0
bin	0.5	0
statistic simpleNetwork.host[1].wlan[0].radio bitErrorRate:histogram
field count 347
field mean 0
field stddev 0
field min 0
field max 0
field sum 0
field sqrsum 0
attr source bitErrorRate(packetSentToUpper)
attr title "Bit error rate, histogram"
bin	-inf	0
bin	-0.5	0
bin	-0.48	0
bin	-0.46	0
bin	-0.44	0
bin	-0.42	0
bin	-0.4	0
bin	-0.38	0
bin	-0.36	0
bin	-0.34	0
bin	-0.32	0
bin	-0.3	0
bin	-0.28	0
bin	-0.26	0
bin	-0.24	0
bin	-0.22	0
bin	-0.2	0
bin	-0.18	0
bin	-0.16	0
bin	-0.14	0
bin	-0.12	0
bin	-0.1	0
bin	-0.08	0
bin	-0.06	0
bin	-0.04	0
bin	-0.02	0
bin	0	347
bin	0.02	0
bin	0.04	0
bin	0.06	0
bin	0.08	0
bin	0.1	0
bin	0.12	0
bin	0.14	0
bin	0.16	0
bin	0.18	0
bin	0.2	0
bin	0.22	0
bin	0.24	0
bin	0.26	0
bin	0.28	0
bin	0.3	0
bin	0.32	0
bin	0.34	0
bin	0.36	0
bin	0.38	0
bin	0.4	0
bin	0.42	0
bin	0.44	0
bin	0.46	0
bin	0.48	0
bin	0.5	0
statistic simpleNetwork.host[1].wlan[0].radio symbolErrorRate:histogram
field count 347
field mean 0
field stddev 0
field min 0
field max 0
field sum 0
field sqrsum 0
attr source symbolErrorRate(packetSentToUpper)
attr title "Symbol error rate, histogram"
bin	-inf	0
bin	-0.5	0
bin	-0.48	0
bin	-0.46	0
bin	-0.44	0
bin	-0.42	0
bin	-0.4	0
bin	-0.38	0
bin	-0.36	0
bin	-0.34	0
bin	-0.32	0
bin	-0.3	0
bin	-0.28	0
bin	-0.26	0
bin	-0.24	0
bin	-0.22	0
bin	-0.2	0
bin	-0.18	0
bin	-0.16	0
bin	-0.14	0
bin	-0.12	0
bin	-0.1	0
bin	-0.08	0
bin	-0.06	0
bin	-0.04	0
bin	-0.02	0
bin	0	347
bin	0.02	0
bin	0.04	0
bin	0.06	0
bin	0.08	0
bin	0.1	0
bin	0.12	0
bin	0.14	0
bin	0.16	0
bin	0.18	0
bin	0.2	0
bin	0.22	0
bin	0.24	0
bin	0.26	0
bin	0.28	0
bin	0.3	0
bin	0.32	0
bin	0.34	0
bin	0.36	0
bin	0.38	0
bin	0.4	0
bin	0.42	0
bin	0.44	0
bin	0.46	0
bin	0.48	0
bin	0.5	0
scalar simpleNetwork.host[1].ipv4.ip packetDropAddressResolutionFailed:count 0
attr interpolationmode none
attr source packetDropReasonIsAddressResolutionFailed(packetDropped)
attr title "packet drop: address resolution failed, count"
scalar simpleNetwork.host[1].ipv4.ip packetDropAddressResolutionFailed:sum(packetBytes) 0
attr interpolationmode none
attr source packetDropReasonIsAddressResolutionFailed(packetDropped)
attr title "packet drop: address resolution failed, sum(packetBytes)"
scalar simpleNetwork.host[1].ipv4.ip packetDropHopLimitReached:count 0
attr interpolationmode none
attr source packetDropReasonIsHopLimitReached(packetDropped)
attr title "packet drop: hop limit reached, count"
scalar simpleNetwork.host[1].ipv4.ip packetDropHopLimitReached:sum(packetBytes) 0
attr interpolationmode none
attr source packetDropReasonIsHopLimitReached(packetDropped)
attr title "packet drop: hop limit reached, sum(packetBytes)"
scalar simpleNetwork.host[1].ipv4.ip packetDropForwardingDisabled:count 0
attr interpolationmode none
attr source packetDropReasonIsForwardingDisabled(packetDropped)
attr title "packet drop: forwarding disabled, count"
scalar simpleNetwork.host[1].ipv4.ip packetDropForwardingDisabled:sum(packetBytes) 0
attr interpolationmode none
attr source packetDropReasonIsForwardingDisabled(packetDropped)
attr title "packet drop: forwarding disabled, sum(packetBytes)"
scalar simpleNetwork.host[1].ipv4.ip packetDropNoInterfaceFound:count 0
attr interpolationmode none
attr source packetDropReasonIsNoInterfaceFound(packetDropped)
attr title "packet drop: no interface found, count"
scalar simpleNetwork.host[1].ipv4.ip packetDropNoInterfaceFound:sum(packetBytes) 0
attr interpolationmode none
attr source packetDropReasonIsNoInterfaceFound(packetDropped)
attr title "packet drop: no interface found, sum(packetBytes)"
scalar simpleNetwork.host[1].ipv4.ip packetDropNoRouteFound:count 0
attr interpolationmode none
attr source packetDropReasonIsNoRouteFound(packetDropped)
attr title "packet drop: no route found, count"
scalar simpleNetwork.host[1].ipv4.ip packetDropNoRouteFound:sum(packetBytes) 0
attr interpolationmode none
attr source packetDropReasonIsNoRouteFound(packetDropped)
attr title "packet drop: no route found, sum(packetBytes)"
scalar simpleNetwork.host[1].ipv4.ip packetDropUndefined:count 0
attr interpolationmode none
attr source packetDropReasonIsUndefined(packetDropped)
attr title "packet drop: undefined, count"
scalar simpleNetwork.host[1].ipv4.ip packetDropUndefined:sum(packetBytes) 0
attr interpolationmode none
attr source packetDropReasonIsUndefined(packetDropped)
attr title "packet drop: undefined, sum(packetBytes)"
scalar simpleNetwork.host[1].ipv4.arp arpResolutionFailed:count 0
attr title "ARP failed resolutions, count"
scalar simpleNetwork.host[1].ipv4.arp arpResolutionCompleted:count 0
attr title "ARP completed resolutions, count"
scalar simpleNetwork.host[1].ipv4.arp arpResolutionInitiated:count 0
attr title "ARP initiated resolutions, count"
scalar simpleNetwork.host[1].ipv4.arp arpReplySent:count 0
attr source arpReplySent
attr title "ARP replies sent, count"
scalar simpleNetwork.host[1].ipv4.arp arpReplySent:sum(packetBytes) 0
attr source arpReplySent
attr title "ARP replies sent, sum(packetBytes)"
scalar simpleNetwork.host[1].ipv4.arp arpRequestSent:count 0
attr source arpRequestSent
attr title "ARP request sent, count"
scalar simpleNetwork.host[1].ipv4.arp arpRequestSent:sum(packetBytes) 0
attr source arpRequestSent
attr title "ARP request sent, sum(packetBytes)"
scalar simpleNetwork.host[1].udp packetReceived:count 347
attr interpolationmode none
attr source packetReceived
attr title "packets received, count"
scalar simpleNetwork.host[1].udp packetReceived:sum(packetBytes) 11104
attr interpolationmode none
attr source packetReceived
attr title "packets received, sum(packetBytes)"
scalar simpleNetwork.host[1].udp packetSent:count 399
attr interpolationmode none
attr source packetSent
attr title "packets sent, count"
scalar simpleNetwork.host[1].udp packetSent:sum(packetBytes) 12768
attr interpolationmode none
attr source packetSent
attr title "packets sent, sum(packetBytes)"
scalar simpleNetwork.host[1].udp passedUpPk:count 347
attr interpolationmode none
attr source packetSentToUpper
attr title "packets passed up, count"
scalar simpleNetwork.host[1].udp droppedPkWrongPort:count 0
attr interpolationmode none
attr source packetDropReasonIsNoPortFound(packetDropped)
attr title "packets dropped (wrong port), count"
scalar simpleNetwork.host[1].udp droppedPkBadChecksum:count 0
attr interpolationmode none
attr source packetDropReasonIsIncorrectlyReceived(packetDropped)
attr title "packets dropped (checksum error), count"
scalar simpleNetwork.host[1].app[0] pingRxSeq:count 0
attr interpolationmode none
attr title "ping rx seq, count"
scalar simpleNetwork.host[1].app[0] pingTxSeq:count 199
attr interpolationmode none
attr title "ping tx seq, count"
scalar simpleNetwork.host[1].app[0] numOutOfOrderArrivals:last nan
attr interpolationmode none
attr title "ping out-of-order arrivals, last"
scalar simpleNetwork.host[1].app[0] numLost:last nan
attr interpolationmode none
attr title "pings lost, last"
statistic simpleNetwork.host[1].app[0] rtt:histogram
field count 0
field mean -nan
field stddev -nan
field min -nan
field max -nan
field sum 0
field sqrsum 0
attr interpolationmode none
attr title "ping round-trip time, histogram"
attr unit s
bin	-inf	0
bin	0	0
bin	1	0
scalar simpleNetwork.host[1].routing nodeEndingSignal:count 137
attr interpolationmode none
attr title "Node end, count"
scalar simpleNetwork.host[1].routing nodeEndingSignal:max 200
attr interpolationmode none
attr title "Node end, max"
scalar simpleNetwork.host[1].routing nodeEndingSignal:last 200
attr interpolationmode none
attr title "Node end, last"
scalar simpleNetwork.host[1].routing batteryDecaySignal:count 1989
attr interpolationmode none
attr title "Battery decay, count"
scalar simpleNetwork.host[1].routing batteryDecaySignal:max 80
attr interpolationmode none
attr title "Battery decay, max"
scalar simpleNetwork.host[1].routing batteryDecaySignal:last 0
attr interpolationmode none
attr title "Battery decay, last"
scalar simpleNetwork.host[1].routing powerThreshSignal:count 0
attr interpolationmode none
attr title "Power thresh, count"
scalar simpleNetwork.host[1].routing powerThreshSignal:max -nan
attr interpolationmode none
attr title "Power thresh, max"
scalar simpleNetwork.host[1].routing powerThreshSignal:last nan
attr interpolationmode none
attr title "Power thresh, last"
scalar simpleNetwork.host[1].routing distSignal:count 0
attr interpolationmode none
attr title "Distance from sender to destination, count"
scalar simpleNetwork.host[1].routing distSignal:max -nan
attr interpolationmode none
attr title "Distance from sender to destination, max"
scalar simpleNetwork.host[1].routing distSignal:last nan
attr interpolationmode none
attr title "Distance from sender to destination, last"
scalar simpleNetwork.host[1].routing sentBrapMsgSignal:count 88
attr interpolationmode none
attr title "Number of CAIN BRAP messages sent, count"
scalar simpleNetwork.host[1].routing sentBrapMsgSignal:max 88
attr interpolationmode none
attr title "Number of CAIN BRAP messages sent, max"
scalar simpleNetwork.host[1].routing sentBrapMsgSignal:last 88
attr interpolationmode none
attr title "Number of CAIN BRAP messages sent, last"
scalar simpleNetwork.host[1].routing recBrapMsgSignal:count 0
attr interpolationmode none
attr title "Number of CAIN BRAP messages received, count"
scalar simpleNetwork.host[1].routing recBrapMsgSignal:max -nan
attr interpolationmode none
attr title "Number of CAIN BRAP messages received, max"
scalar simpleNetwork.host[1].routing recBrapMsgSignal:last nan
attr interpolationmode none
attr title "Number of CAIN BRAP messages received, last"
scalar simpleNetwork.host[1].routing sentSprMsgSignal:count 0
attr interpolationmode none
attr title "Number of CAIN SPRAY messages sent, count"
scalar simpleNetwork.host[1].routing sentSprMsgSignal:max -nan
attr interpolationmode none
attr title "Number of CAIN SPRAY messages sent, max"
scalar simpleNetwork.host[1].routing sentSprMsgSignal:last nan
attr interpolationmode none
attr title "Number of CAIN SPRAY messages sent, last"
scalar simpleNetwork.host[1].routing recSprMsgSignal:count 0
attr interpolationmode none
attr title "Number of CAIN SPRAY messages received, count"
scalar simpleNetwork.host[1].routing recSprMsgSignal:max -nan
attr interpolationmode none
attr title "Number of CAIN SPRAY messages received, max"
scalar simpleNetwork.host[1].routing recSprMsgSignal:last nan
attr interpolationmode none
attr title "Number of CAIN SPRAY messages received, last"
scalar simpleNetwork.host[1].routing sentLarMsgSignal:count 0
attr interpolationmode none
attr title "Number of CAIN LAR messages sent, count"
scalar simpleNetwork.host[1].routing sentLarMsgSignal:max -nan
attr interpolationmode none
attr title "Number of CAIN LAR messages sent, max"
scalar simpleNetwork.host[1].routing sentLarMsgSignal:last nan
attr interpolationmode none
attr title "Number of CAIN LAR messages sent, last"
scalar simpleNetwork.host[1].routing recLarMsgSignal:count 0
attr interpolationmode none
attr title "Number of CAIN LAR messages received, count"
scalar simpleNetwork.host[1].routing recLarMsgSignal:max -nan
attr interpolationmode none
attr title "Number of CAIN LAR messages received, max"
scalar simpleNetwork.host[1].routing recLarMsgSignal:last nan
attr interpolationmode none
attr title "Number of CAIN LAR messages received, last"
scalar simpleNetwork.host[1].routing sentCainRREQFwdMsgSignal:count 0
attr interpolationmode none
attr title "Number of CAIN RREQFWD messages sent, count"
scalar simpleNetwork.host[1].routing sentCainRREQFwdMsgSignal:max -nan
attr interpolationmode none
attr title "Number of CAIN RREQFWD messages sent, max"
scalar simpleNetwork.host[1].routing sentCainRREQFwdMsgSignal:last nan
attr interpolationmode none
attr title "Number of CAIN RREQFWD messages sent, last"
scalar simpleNetwork.host[1].routing recCainRREQFwdMsgSignal:count 0
attr interpolationmode none
attr title "Number of CAIN RREQFWD messages received, count"
scalar simpleNetwork.host[1].routing recCainRREQFwdMsgSignal:max -nan
attr interpolationmode none
attr title "Number of CAIN RREQFWD messages received, max"
scalar simpleNetwork.host[1].routing recCainRREQFwdMsgSignal:last nan
attr interpolationmode none
attr title "Number of CAIN RREQFWD messages received, last"
scalar simpleNetwork.host[1].routing recCainRREPMsgSignal:count 0
attr interpolationmode none
attr title "Number of CAIN RREP messages received, count"
scalar simpleNetwork.host[1].routing recCainRREPMsgSignal:max -nan
attr interpolationmode none
attr title "Number of CAIN RREP messages received, max"
scalar simpleNetwork.host[1].routing recCainRREPMsgSignal:last nan
attr interpolationmode none
attr title "Number of CAIN RREP messages received, last"
scalar simpleNetwork.host[1].routing sentCainRREPMsgSignal:count 0
attr interpolationmode none
attr title "Number of CAIN RREP messages sent, count"
scalar simpleNetwork.host[1].routing sentCainRREPMsgSignal:max -nan
attr interpolationmode none
attr title "Number of CAIN RREP messages sent, max"
scalar simpleNetwork.host[1].routing sentCainRREPMsgSignal:last nan
attr interpolationmode none
attr title "Number of CAIN RREP messages sent, last"
scalar simpleNetwork.host[1].routing recCainRREQMsgSignal:count 0
attr interpolationmode none
attr title "Number of CAIN RREQ messages received, count"
scalar simpleNetwork.host[1].routing recCainRREQMsgSignal:max -nan
attr interpolationmode none
attr title "Number of CAIN RREQ messages received, max"
scalar simpleNetwork.host[1].routing recCainRREQMsgSignal:last nan
attr interpolationmode none
attr title "Number of CAIN RREQ messages received, last"
scalar simpleNetwork.host[1].routing sentCainRREQMsgSignal:count 0
attr interpolationmode none
attr title "Number of CAIN RREQ messages sent, count"
scalar simpleNetwork.host[1].routing sentCainRREQMsgSignal:max -nan
attr interpolationmode none
attr title "Number of CAIN RREQ messages sent, max"
scalar simpleNetwork.host[1].routing sentCainRREQMsgSignal:last nan
attr interpolationmode none
attr title "Number of CAIN RREQ messages sent, last"
scalar simpleNetwork.host[1].routing recCainErrMsgSignal:count 0
attr interpolationmode none
attr title "Number of CAIN ERR messages received, count"
scalar simpleNetwork.host[1].routing recCainErrMsgSignal:max -nan
attr interpolationmode none
attr title "Number of CAIN ERR messages received, max"
scalar simpleNetwork.host[1].routing recCainErrMsgSignal:last nan
attr interpolationmode none
attr title "Number of CAIN ERR messages received, last"
scalar simpleNetwork.host[1].routing sentCainErrMsgSignal:count 0
attr interpolationmode none
attr title "Number of CAIN ERR messages sent, count"
scalar simpleNetwork.host[1].routing sentCainErrMsgSignal:max -nan
attr interpolationmode none
attr title "Number of CAIN ERR messages sent, max"
scalar simpleNetwork.host[1].routing sentCainErrMsgSignal:last nan
attr interpolationmode none
attr title "Number of CAIN ERR messages sent, last"
scalar simpleNetwork.host[1].routing recCainHopMsgSignal:count 0
attr interpolationmode none
attr title "Number of CAIN HOP messages received, count"
scalar simpleNetwork.host[1].routing recCainHopMsgSignal:max -nan
attr interpolationmode none
attr title "Number of CAIN HOP messages received, max"
scalar simpleNetwork.host[1].routing recCainHopMsgSignal:last nan
attr interpolationmode none
attr title "Number of CAIN HOP messages received, last"
scalar simpleNetwork.host[1].routing sentCainHopMsgSignal:count 0
attr interpolationmode none
attr title "Number of CAIN HOP messages sent, count"
scalar simpleNetwork.host[1].routing sentCainHopMsgSignal:max -nan
attr interpolationmode none
attr title "Number of CAIN HOP messages sent, max"
scalar simpleNetwork.host[1].routing sentCainHopMsgSignal:last nan
attr interpolationmode none
attr title "Number of CAIN HOP messages sent, last"
scalar simpleNetwork.host[1].routing recCainRespMsgSignal:count 0
attr interpolationmode none
attr title "Number of CAIN RESP messages received, count"
scalar simpleNetwork.host[1].routing recCainRespMsgSignal:max -nan
attr interpolationmode none
attr title "Number of CAIN RESP messages received, max"
scalar simpleNetwork.host[1].routing recCainRespMsgSignal:last nan
attr interpolationmode none
attr title "Number of CAIN RESP messages received, last"
scalar simpleNetwork.host[1].routing sentCainRespMsgSignal:count 0
attr interpolationmode none
attr title "Number of CAIN RESP messages sent, count"
scalar simpleNetwork.host[1].routing sentCainRespMsgSignal:max -nan
attr interpolationmode none
attr title "Number of CAIN RESP messages sent, max"
scalar simpleNetwork.host[1].routing sentCainRespMsgSignal:last nan
attr interpolationmode none
attr title "Number of CAIN RESP messages sent, last"
scalar simpleNetwork.host[1].routing recCainReqMsgSignal:count 0
attr interpolationmode none
attr title "Number of CAIN REQ messages received, count"
scalar simpleNetwork.host[1].routing recCainReqMsgSignal:max -nan
attr interpolationmode none
attr title "Number of CAIN REQ messages received, max"
scalar simpleNetwork.host[1].routing recCainReqMsgSignal:last nan
attr interpolationmode none
attr title "Number of CAIN REQ messages received, last"
scalar simpleNetwork.host[1].routing sentCainReqMsgSignal:count 0
attr interpolationmode none
attr title "Number of CAIN REQ messages sent, count"
scalar simpleNetwork.host[1].routing sentCainReqMsgSignal:max -nan
attr interpolationmode none
attr title "Number of CAIN REQ messages sent, max"
scalar simpleNetwork.host[1].routing sentCainReqMsgSignal:last nan
attr interpolationmode none
attr title "Number of CAIN REQ messages sent, last"
scalar simpleNetwork.host[1].routing sentCainFwdMsgSignal:count 0
attr interpolationmode none
attr title "Number of CAIN FWD message sent, count"
scalar simpleNetwork.host[1].routing sentCainFwdMsgSignal:max -nan
attr interpolationmode none
attr title "Number of CAIN FWD message sent, max"
scalar simpleNetwork.host[1].routing sentCainFwdMsgSignal:last nan
attr interpolationmode none
attr title "Number of CAIN FWD message sent, last"
scalar simpleNetwork.host[1].routing recCainFwdMsgSignal:mean -nan
attr interpolationmode none
attr title "Number of CAIN FWD message received, mean"
scalar simpleNetwork.host[1].routing recCainFwdMsgSignal:count 0
attr interpolationmode none
attr title "Number of CAIN FWD message received, count"
scalar simpleNetwork.host[1].routing recCainFwdMsgSignal:max -nan
attr interpolationmode none
attr title "Number of CAIN FWD message received, max"
scalar simpleNetwork.host[1].routing recCainFwdMsgSignal:last nan
attr interpolationmode none
attr title "Number of CAIN FWD message received, last"
scalar simpleNetwork.host[1].routing cainMsgSignal:count 0
attr interpolationmode none
attr title "Number of CAIN messages received, count"
scalar simpleNetwork.host[1].routing cainMsgSignal:max -nan
attr interpolationmode none
attr title "Number of CAIN messages received, max"
scalar simpleNetwork.host[1].routing cainMsgSignal:last nan
attr interpolationmode none
attr title "Number of CAIN messages received, last"
scalar simpleNetwork.host[1].routing connectedDevsSignal:count 0
attr interpolationmode none
attr title "Number of connected devices to a CH, count"
scalar simpleNetwork.host[1].routing connectedDevsSignal:max -nan
attr interpolationmode none
attr title "Number of connected devices to a CH, max"
scalar simpleNetwork.host[1].routing connectedDevsSignal:last nan
attr interpolationmode none
attr title "Number of connected devices to a CH, last"
scalar simpleNetwork.host[2].energyStorage residualEnergyCapacity:last 0.12756872838154
attr interpolationmode linear
attr source residualEnergyCapacityChanged
attr title "Residual energy capacity, last"
scalar simpleNetwork.host[2].lo[0].lo rcvdPkFromHl:count 0
attr interpolationmode none
attr source packetReceivedFromUpper
attr title "packets received from higher layer, count"
scalar simpleNetwork.host[2].lo[0].lo rcvdPkFromHl:sum(packetBytes) 0
attr interpolationmode none
attr source packetReceivedFromUpper
attr title "packets received from higher layer, sum(packetBytes)"
scalar simpleNetwork.host[2].lo[0].lo passedUpPk:count 0
attr interpolationmode none
attr source packetSentToUpper
attr title "packets passed to higher layer, count"
scalar simpleNetwork.host[2].lo[0].lo passedUpPk:sum(packetBytes) 0
attr interpolationmode none
attr source packetSentToUpper
attr title "packets passed to higher layer, sum(packetBytes)"
scalar simpleNetwork.host[2].wlan[0].mac.queue packetPopped:count 94
attr interpolationmode none
attr title "packet popped, count"
scalar simpleNetwork.host[2].wlan[0].mac.queue packetPopped:sum(packetBytes) 4888
attr interpolationmode none
attr title "packet popped, sum(packetBytes)"
statistic simpleNetwork.host[2].wlan[0].mac.queue queueingTime:histogram
field count 94
field mean 0
field stddev 0
field min 0
field max 0
field sum 0
field sqrsum 0
attr interpolationmode none
attr source queueingTime(packetPopped)
attr title "queueing times, histogram"
attr unit s
bin	-inf	0
bin	-0.5	0
bin	-0.48	0
bin	-0.46	0
bin	-0.44	0
bin	-0.42	0
bin	-0.4	0
bin	-0.38	0
bin	-0.36	0
bin	-0.34	0
bin	-0.32	0
bin	-0.3	0
bin	-0.28	0
bin	-0.26	0
bin	-0.24	0
bin	-0.22	0
bin	-0.2	0
bin	-0.18	0
bin	-0.16	0
bin	-0.14	0
bin	-0.12	0
bin	-0.1	0
bin	-0.08	0
bin	-0.06	0
bin	-0.04	0
bin	-0.02	0
bin	0	94
bin	0.02	0
bin	0.04	0
bin	0.06	0
bin	0.08	0
bin	0.1	0
bin	0.12	0
bin	0.14	0
bin	0.16	0
bin	0.18	0
bin	0.2	0
bin	0.22	0
bin	0.24	0
bin	0.26	0
bin	0.28	0
bin	0.3	0
bin	0.32	0
bin	0.34	0
bin	0.36	0
bin	0.38	0
bin	0.4	0
bin	0.42	0
bin	0.44	0
bin	0.46	0
bin	0.48	0
bin	0.5	0
scalar simpleNetwork.host[2].wlan[0].mac.queue queueLength:max 1
attr interpolationmode sample-hold
attr source "count(packetPushed) - count(packetPopped) - count(packetRemoved) - count(packetDropped)"
attr title "queue length, max"
scalar simpleNetwork.host[2].wlan[0].mac.queue queueLength:timeavg 0
attr interpolationmode sample-hold
attr source "count(packetPushed) - count(packetPopped) - count(packetRemoved) - count(packetDropped)"
attr title "queue length, timeavg"
scalar simpleNetwork.host[2].wlan[0].mac.queue packetPushed:count 94
attr interpolationmode none
attr title "packet pushed, count"
scalar simpleNetwork.host[2].wlan[0].mac.queue packetPushed:sum(packetBytes) 4888
attr interpolationmode none
attr title "packet pushed, sum(packetBytes)"
scalar simpleNetwork.host[2].wlan[0].mac.queue packetDropQueueOverflow:count 0
attr interpolationmode none
attr source packetDropReasonIsQueueOverflow(packetDropped)
attr title "packet drops: queue overflow, count"
scalar simpleNetwork.host[2].wlan[0].mac.queue packetDropQueueOverflow:sum(packetBytes) 0
attr interpolationmode none
attr source packetDropReasonIsQueueOverflow(packetDropped)
attr title "packet drops: queue overflow, sum(packetBytes)"
scalar simpleNetwork.host[2].wlan[0].mac.queue packetRemoved:count 0
attr interpolationmode none
attr title "packets removed, count"
scalar simpleNetwork.host[2].wlan[0].mac.queue packetRemoved:sum(packetBytes) 0
attr interpolationmode none
attr title "packets removed, sum(packetBytes)"
scalar simpleNetwork.host[2].wlan[0].mac rcvdPkFromLl:count 479
attr interpolationmode none
attr source packetReceivedFromLower
attr title "packets received from lower layer, count"
scalar simpleNetwork.host[2].wlan[0].mac rcvdPkFromLl:sum(packetBytes) 35925
attr interpolationmode none
attr source packetReceivedFromLower
attr title "packets received from lower layer, sum(packetBytes)"
scalar simpleNetwork.host[2].wlan[0].mac sentDownPk:count 94
attr interpolationmode none
attr source packetSentToLower
attr title "packets sent to lower layer, count"
scalar simpleNetwork.host[2].wlan[0].mac sentDownPk:sum(packetBytes) 7050
attr interpolationmode none
attr source packetSentToLower
attr title "packets sent to lower layer, sum(packetBytes)"
scalar simpleNetwork.host[2].wlan[0].mac rcvdPkFromHl:count 94
attr interpolationmode none
attr source packetReceivedFromUpper
attr title "packets received from higher layer, count"
scalar simpleNetwork.host[2].wlan[0].mac rcvdPkFromHl:sum(packetBytes) 4888
attr interpolationmode none
attr source packetReceivedFromUpper
attr title "packets received from higher layer, sum(packetBytes)"
scalar simpleNetwork.host[2].wlan[0].mac passedUpPk:count 479
attr interpolationmode none
attr source packetSentToUpper
attr title "packets passed to higher layer, count"
scalar simpleNetwork.host[2].wlan[0].mac passedUpPk:sum(packetBytes) 24908
attr interpolationmode none
attr source packetSentToUpper
attr title "packets passed to higher layer, sum(packetBytes)"
scalar simpleNetwork.host[2].wlan[0].mac packetDropIncorrectlyReceived:count 0
attr interpolationmode none
attr source packetDropReasonIsIncorrectlyReceived(packetDropped)
attr title "packet drop: incorrectly received, count"
scalar simpleNetwork.host[2].wlan[0].mac packetDropIncorrectlyReceived:sum(packetBytes) 0
attr interpolationmode none
attr source packetDropReasonIsIncorrectlyReceived(packetDropped)
attr title "packet drop: incorrectly received, sum(packetBytes)"
scalar simpleNetwork.host[2].wlan[0].mac packetDropInterfaceDown:count 0
attr interpolationmode none
attr source packetDropReasonIsInterfaceDown(packetDropped)
attr title "packet drop: interface down, count"
scalar simpleNetwork.host[2].wlan[0].mac packetDropInterfaceDown:sum(packetBytes) 0
attr interpolationmode none
attr source packetDropReasonIsInterfaceDown(packetDropped)
attr title "packet drop: interface down, sum(packetBytes)"
scalar simpleNetwork.host[2].wlan[0].mac packetDropNotAddressedToUs:count 0
attr interpolationmode none
attr source packetDropReasonIsNotAddressedToUs(packetDropped)
attr title "packet drop: not addressed to us, count"
scalar simpleNetwork.host[2].wlan[0].mac packetDropNotAddressedToUs:sum(packetBytes) 0
attr interpolationmode none
attr source packetDropReasonIsNotAddressedToUs(packetDropped)
attr title "packet drop: not addressed to us, sum(packetBytes)"
scalar simpleNetwork.host[2].wlan[0].mac linkBroken:count 0
attr interpolationmode none
attr source linkBroken
attr title "link break, count"
scalar simpleNetwork.host[2].wlan[0].radio radioMode:count 3
attr interpolationmode sample-hold
attr source radioModeChanged
attr title "Radio mode, count"
scalar simpleNetwork.host[2].wlan[0].radio receptionState:count 971
attr interpolationmode sample-hold
attr source receptionStateChanged
attr title "Radio reception state, count"
scalar simpleNetwork.host[2].wlan[0].radio transmissionState:count 189
attr interpolationmode sample-hold
attr source transmissionStateChanged
attr title "Radio transmission state, count"
statistic simpleNetwork.host[2].wlan[0].radio minSnir:histogram
field count 0
field mean -nan
field stddev -nan
field min -nan
field max -nan
field sum 0
field sqrsum 0
attr source minimumSnir(packetSentToUpper)
attr title "Min SNIR, histogram"
bin	-inf	0
bin	0	0
bin	1	0
statistic simpleNetwork.host[2].wlan[0].radio packetErrorRate:histogram
field count 479
field mean 0.025052192066806
field stddev 0.15644704275443
field min 0
field max 1
field sum 12
field sqrsum 12
attr source packetErrorRate(packetSentToUpper)
attr title "Packet error rate, histogram"
bin	-inf	0
bin	-0.5	0
bin	-0.48	0
bin	-0.46	0
bin	-0.44	0
bin	-0.42	0
bin	-0.4	0
bin	-0.38	0
bin	-0.36	0
bin	-0.34	0
bin	-0.32	0
bin	-0.3	0
bin	-0.28	0
bin	-0.26	0
bin	-0.24	0
bin	-0.22	0
bin	-0.2	0
bin	-0.18	0
bin	-0.16	0
bin	-0.14	0
bin	-0.12	0
bin	-0.1	0
bin	-0.08	0
bin	-0.06	0
bin	-0.04	0
bin	-0.02	0
bin	0	467
bin	0.02	0
bin	0.04	0
bin	0.06	0
bin	0.08	0
bin	0.1	0
bin	0.12	0
bin	0.14	0
bin	0.16	0
bin	0.18	0
bin	0.2	0
bin	0.22	0
bin	0.24	0
bin	0.26	0
bin	0.28	0
bin	0.3	0
bin	0.32	0
bin	0.34	0
bin	0.36	0
bin	0.38	0
bin	0.4	0
bin	0.42	0
bin	0.44	0
bin	0.46	0
bin	0.48	0
bin	0.5	0
bin	0.52	0
bin	0.54	0
bin	0.56	0
bin	0.58	0
bin	0.6	0
bin	0.62	0
bin	0.64	0
bin	0.66	0
bin	0.68	0
bin	0.7	0
bin	0.72	0
bin	0.74	0
bin	0.76	0
bin	0.78	0
bin	0.8	0
bin	0.82	0
bin	0.84	0
bin	0.86	0
bin	0.88	0
bin	0.9	0
bin	0.92	0
bin	0.94	0
bin	0.96	0
bin	0.98	0
bin	1	12
bin	1.02	0
statistic simpleNetwork.host[2].wlan[0].radio bitErrorRate:histogram
field count 479
field mean 0.025052192066806
field stddev 0.15644704275443
field min 0
field max 1
field sum 12
field sqrsum 12
attr source bitErrorRate(packetSentToUpper)
attr title "Bit error rate, histogram"
bin	-inf	0
bin	-0.5	0
bin	-0.48	0
bin	-0.46	0
bin	-0.44	0
bin	-0.42	0
bin	-0.4	0
bin	-0.38	0
bin	-0.36	0
bin	-0.34	0
bin	-0.32	0
bin	-0.3	0
bin	-0.28	0
bin	-0.26	0
bin	-0.24	0
bin	-0.22	0
bin	-0.2	0
bin	-0.18	0
bin	-0.16	0
bin	-0.14	0
bin	-0.12	0
bin	-0.1	0
bin	-0.08	0
bin	-0.06	0
bin	-0.04	0
bin	-0.02	0
bin	0	467
bin	0.02	0
bin	0.04	0
bin	0.06	0
bin	0.08	0
bin	0.1	0
bin	0.12	0
bin	0.14	0
bin	0.16	0
bin	0.18	0
bin	0.2	0
bin	0.22	0
bin	0.24	0
bin	0.26	0
bin	0.28	0
bin	0.3	0
bin	0.32	0
bin	0.34	0
bin	0.36	0
bin	0.38	0
bin	0.4	0
bin	0.42	0
bin	0.44	0
bin	0.46	0
bin	0.48	0
bin	0.5	0
bin	0.52	0
bin	0.54	0
bin	0.56	0
bin	0.58	0
bin	0.6	0
bin	0.62	0
bin	0.64	0
bin	0.66	0
bin	0.68	0
bin	0.7	0
bin	0.72	0
bin	0.74	0
bin	0.76	0
bin	0.78	0
bin	0.8	0
bin	0.82	0
bin	0.84	0
bin	0.86	0
bin	0.88	0
bin	0.9	0
bin	0.92	0
bin	0.94	0
bin	0.96	0
bin	0.98	0
bin	1	12
bin	1.02	0
statistic simpleNetwork.host[2].wlan[0].radio symbolErrorRate:histogram
field count 479
field mean 0.025052192066806
field stddev 0.15644704275443
field min 0
field max 1
field sum 12
field sqrsum 12
attr source symbolErrorRate(packetSentToUpper)
attr title "Symbol error rate, histogram"
bin	-inf	0
bin	-0.5	0
bin	-0.48	0
bin	-0.46	0
bin	-0.44	0
bin	-0.42	0
bin	-0.4	0
bin	-0.38	0
bin	-0.36	0
bin	-0.34	0
bin	-0.32	0
bin	-0.3	0
bin	-0.28	0
bin	-0.26	0
bin	-0.24	0
bin	-0.22	0
bin	-0.2	0
bin	-0.18	0
bin	-0.16	0
bin	-0.14	0
bin	-0.12	0
bin	-0.1	0
bin	-0.08	0
bin	-0.06	0
bin	-0.04	0
bin	-0.02	0
bin	0	467
bin	0.02	0
bin	0.04	0
bin	0.06	0
bin	0.08	0
bin	0.1	0
bin	0.12	0
bin	0.14	0
bin	0.16	0
bin	0.18	0
bin	0.2	0
bin	0.22	0
bin	0.24	0
bin	0.26	0
bin	0.28	0
bin	0.3	0
bin	0.32	0
bin	0.34	0
bin	0.36	0
bin	0.38	0
bin	0.4	0
bin	0.42	0
bin	0.44	0
bin	0.46	0
bin	0.48	0
bin	0.5	0
bin	0.52	0
bin	0.54	0
bin	0.56	0
bin	0.58	0
bin	0.6	0
bin	0.62	0
bin	0.64	0
bin	0.66	0
bin	0.68	0
bin	0.7	0
bin	0.72	0
bin	0.74	0
bin	0.76	0
bin	0.78	0
bin	0.8	0
bin	0.82	0
bin	0.84	0
bin	0.86	0
bin	0.88	0
bin	0.9	0
bin	0.92	0
bin	0.94	0
bin	0.96	0
bin	0.98	0
bin	1	12
bin	1.02	0
scalar simpleNetwork.host[2].ipv4.ip packetDropAddressResolutionFailed:count 0
attr interpolationmode none
attr source packetDropReasonIsAddressResolutionFailed(packetDropped)
attr title "packet drop: address resolution failed, count"
scalar simpleNetwork.host[2].ipv4.ip packetDropAddressResolutionFailed:sum(packetBytes) 0
attr interpolationmode none
attr source packetDropReasonIsAddressResolutionFailed(packetDropped)
attr title "packet drop: address resolution failed, sum(packetBytes)"
scalar simpleNetwork.host[2].ipv4.ip packetDropHopLimitReached:count 0
attr interpolationmode none
attr source packetDropReasonIsHopLimitReached(packetDropped)
attr title "packet drop: hop limit reached, count"
scalar simpleNetwork.host[2].ipv4.ip packetDropHopLimitReached:sum(packetBytes) 0
attr interpolationmode none
attr source packetDropReasonIsHopLimitReached(packetDropped)
attr title "packet drop: hop limit reached, sum(packetBytes)"
scalar simpleNetwork.host[2].ipv4.ip packetDropForwardingDisabled:count 0
attr interpolationmode none
attr source packetDropReasonIsForwardingDisabled(packetDropped)
attr title "packet drop: forwarding disabled, count"
scalar simpleNetwork.host[2].ipv4.ip packetDropForwardingDisabled:sum(packetBytes) 0
attr interpolationmode none
attr source packetDropReasonIsForwardingDisabled(packetDropped)
attr title "packet drop: forwarding disabled, sum(packetBytes)"
scalar simpleNetwork.host[2].ipv4.ip packetDropNoInterfaceFound:count 0
attr interpolationmode none
attr source packetDropReasonIsNoInterfaceFound(packetDropped)
attr title "packet drop: no interface found, count"
scalar simpleNetwork.host[2].ipv4.ip packetDropNoInterfaceFound:sum(packetBytes) 0
attr interpolationmode none
attr source packetDropReasonIsNoInterfaceFound(packetDropped)
attr title "packet drop: no interface found, sum(packetBytes)"
scalar simpleNetwork.host[2].ipv4.ip packetDropNoRouteFound:count 0
attr interpolationmode none
attr source packetDropReasonIsNoRouteFound(packetDropped)
attr title "packet drop: no route found, count"
scalar simpleNetwork.host[2].ipv4.ip packetDropNoRouteFound:sum(packetBytes) 0
attr interpolationmode none
attr source packetDropReasonIsNoRouteFound(packetDropped)
attr title "packet drop: no route found, sum(packetBytes)"
scalar simpleNetwork.host[2].ipv4.ip packetDropUndefined:count 0
attr interpolationmode none
attr source packetDropReasonIsUndefined(packetDropped)
attr title "packet drop: undefined, count"
scalar simpleNetwork.host[2].ipv4.ip packetDropUndefined:sum(packetBytes) 0
attr interpolationmode none
attr source packetDropReasonIsUndefined(packetDropped)
attr title "packet drop: undefined, sum(packetBytes)"
scalar simpleNetwork.host[2].ipv4.arp arpResolutionFailed:count 0
attr title "ARP failed resolutions, count"
scalar simpleNetwork.host[2].ipv4.arp arpResolutionCompleted:count 0
attr title "ARP completed resolutions, count"
scalar simpleNetwork.host[2].ipv4.arp arpResolutionInitiated:count 0
attr title "ARP initiated resolutions, count"
scalar simpleNetwork.host[2].ipv4.arp arpReplySent:count 0
attr source arpReplySent
attr title "ARP replies sent, count"
scalar simpleNetwork.host[2].ipv4.arp arpReplySent:sum(packetBytes) 0
attr source arpReplySent
attr title "ARP replies sent, sum(packetBytes)"
scalar simpleNetwork.host[2].ipv4.arp arpRequestSent:count 0
attr source arpRequestSent
attr title "ARP request sent, count"
scalar simpleNetwork.host[2].ipv4.arp arpRequestSent:sum(packetBytes) 0
attr source arpRequestSent
attr title "ARP request sent, sum(packetBytes)"
scalar simpleNetwork.host[2].udp packetReceived:count 479
attr interpolationmode none
attr source packetReceived
attr title "packets received, count"
scalar simpleNetwork.host[2].udp packetReceived:sum(packetBytes) 15328
attr interpolationmode none
attr source packetReceived
attr title "packets received, sum(packetBytes)"
scalar simpleNetwork.host[2].udp packetSent:count 94
attr interpolationmode none
attr source packetSent
attr title "packets sent, count"
scalar simpleNetwork.host[2].udp packetSent:sum(packetBytes) 3008
attr interpolationmode none
attr source packetSent
attr title "packets sent, sum(packetBytes)"
scalar simpleNetwork.host[2].udp passedUpPk:count 479
attr interpolationmode none
attr source packetSentToUpper
attr title "packets passed up, count"
scalar simpleNetwork.host[2].udp droppedPkWrongPort:count 0
attr interpolationmode none
attr source packetDropReasonIsNoPortFound(packetDropped)
attr title "packets dropped (wrong port), count"
scalar simpleNetwork.host[2].udp droppedPkBadChecksum:count 0
attr interpolationmode none
attr source packetDropReasonIsIncorrectlyReceived(packetDropped)
attr title "packets dropped (checksum error), count"
[...]
bin	0.16	0
bin	0.18	0
bin	0.2	0
bin	0.22	0
bin	0.24	0
bin	0.26	0
bin	0.28	0
bin	0.3	0
bin	0.32	0
bin	0.34	0
bin	0.36	0
bin	0.38	0
bin	0.4	0
bin	0.42	0
bin	0.44	0
bin	0.46	0
bin	0.48	0
bin	0.5	0
statistic simpleNetwork.host[59].wlan[0].radio bitErrorRate:histogram
field count 275
field mean 0
field stddev 0
field min 0
field max 0
field sum 0
field sqrsum 0
attr source bitErrorRate(packetSentToUpper)
attr title "Bit error rate, histogram"
bin	-inf	0
bin	-0.5	0
bin	-0.48	0
bin	-0.46	0
bin	-0.44	0
bin	-0.42	0
bin	-0.4	0
bin	-0.38	0
bin	-0.36	0
bin	-0.34	0
bin	-0.32	0
bin	-0.3	0
bin	-0.28	0
bin	-0.26	0
bin	-0.24	0
bin	-0.22	0
bin	-0.2	0
bin	-0.18	0
bin	-0.16	0
bin	-0.14	0
bin	-0.12	0
bin	-0.1	0
bin	-0.08	0
bin	-0.06	0
bin	-0.04	0
bin	-0.02	0
bin	0	275
bin	0.02	0
bin	0.04	0
bin	0.06	0
bin	0.08	0
bin	0.1	0
bin	0.12	0
bin	0.14	0
bin	0.16	0
bin	0.18	0
bin	0.2	0
bin	0.22	0
bin	0.24	0
bin	0.26	0
bin	0.28	0
bin	0.3	0
bin	0.32	0
bin	0.34	0
bin	0.36	0
bin	0.38	0
bin	0.4	0
bin	0.42	0
bin	0.44	0
bin	0.46	0
bin	0.48	0
bin	0.5	0
statistic simpleNetwork.host[59].wlan[0].radio symbolErrorRate:histogram
field count 275
field mean 0
field stddev 0
field min 0
field max 0
field sum 0
field sqrsum 0
attr source symbolErrorRate(packetSentToUpper)
attr title "Symbol error rate, histogram"
bin	-inf	0
bin	-0.5	0
bin	-0.48	0
bin	-0.46	0
bin	-0.44	0
bin	-0.42	0
bin	-0.4	0
bin	-0.38	0
bin	-0.36	0
bin	-0.34	0
bin	-0.32	0
bin	-0.3	0
bin	-0.28	0
bin	-0.26	0
bin	-0.24	0
bin	-0.22	0
bin	-0.2	0
bin	-0.18	0
bin	-0.16	0
bin	-0.14	0
bin	-0.12	0
bin	-0.1	0
bin	-0.08	0
bin	-0.06	0
bin	-0.04	0
bin	-0.02	0
bin	0	275
bin	0.02	0
bin	0.04	0
bin	0.06	0
bin	0.08	0
bin	0.1	0
bin	0.12	0
bin	0.14	0
bin	0.16	0
bin	0.18	0
bin	0.2	0
bin	0.22	0
bin	0.24	0
bin	0.26	0
bin	0.28	0
bin	0.3	0
bin	0.32	0
bin	0.34	0
bin	0.36	0
bin	0.38	0
bin	0.4	0
bin	0.42	0
bin	0.44	0
bin	0.46	0
bin	0.48	0
bin	0.5	0
scalar simpleNetwork.host[59].ipv4.ip packetDropAddressResolutionFailed:count 0
attr interpolationmode none
attr source packetDropReasonIsAddressResolutionFailed(packetDropped)
attr title "packet drop: address resolution failed, count"
scalar simpleNetwork.host[59].ipv4.ip packetDropAddressResolutionFailed:sum(packetBytes) 0
attr interpolationmode none
attr source packetDropReasonIsAddressResolutionFailed(packetDropped)
attr title "packet drop: address resolution failed, sum(packetBytes)"
scalar simpleNetwork.host[59].ipv4.ip packetDropHopLimitReached:count 0
attr interpolationmode none
attr source packetDropReasonIsHopLimitReached(packetDropped)
attr title "packet drop: hop limit reached, count"
scalar simpleNetwork.host[59].ipv4.ip packetDropHopLimitReached:sum(packetBytes) 0
attr interpolationmode none
attr source packetDropReasonIsHopLimitReached(packetDropped)
attr title "packet drop: hop limit reached, sum(packetBytes)"
scalar simpleNetwork.host[59].ipv4.ip packetDropForwardingDisabled:count 0
attr interpolationmode none
attr source packetDropReasonIsForwardingDisabled(packetDropped)
attr title "packet drop: forwarding disabled, count"
scalar simpleNetwork.host[59].ipv4.ip packetDropForwardingDisabled:sum(packetBytes) 0
attr interpolationmode none
attr source packetDropReasonIsForwardingDisabled(packetDropped)
attr title "packet drop: forwarding disabled, sum(packetBytes)"
scalar simpleNetwork.host[59].ipv4.ip packetDropNoInterfaceFound:count 0
attr interpolationmode none
attr source packetDropReasonIsNoInterfaceFound(packetDropped)
attr title "packet drop: no interface found, count"
scalar simpleNetwork.host[59].ipv4.ip packetDropNoInterfaceFound:sum(packetBytes) 0
attr interpolationmode none
attr source packetDropReasonIsNoInterfaceFound(packetDropped)
attr title "packet drop: no interface found, sum(packetBytes)"
scalar simpleNetwork.host[59].ipv4.ip packetDropNoRouteFound:count 0
attr interpolationmode none
attr source packetDropReasonIsNoRouteFound(packetDropped)
attr title "packet drop: no route found, count"
scalar simpleNetwork.host[59].ipv4.ip packetDropNoRouteFound:sum(packetBytes) 0
attr interpolationmode none
attr source packetDropReasonIsNoRouteFound(packetDropped)
attr title "packet drop: no route found, sum(packetBytes)"
scalar simpleNetwork.host[59].ipv4.ip packetDropUndefined:count 0
attr interpolationmode none
attr source packetDropReasonIsUndefined(packetDropped)
attr title "packet drop: undefined, count"
scalar simpleNetwork.host[59].ipv4.ip packetDropUndefined:sum(packetBytes) 0
attr interpolationmode none
attr source packetDropReasonIsUndefined(packetDropped)
attr title "packet drop: undefined, sum(packetBytes)"
scalar simpleNetwork.host[59].ipv4.arp arpResolutionFailed:count 0
attr title "ARP failed resolutions, count"
scalar simpleNetwork.host[59].ipv4.arp arpResolutionCompleted:count 0
attr title "ARP completed resolutions, count"
scalar simpleNetwork.host[59].ipv4.arp arpResolutionInitiated:count 0
attr title "ARP initiated resolutions, count"
scalar simpleNetwork.host[59].ipv4.arp arpReplySent:count 0
attr source arpReplySent
attr title "ARP replies sent, count"
scalar simpleNetwork.host[59].ipv4.arp arpReplySent:sum(packetBytes) 0
attr source arpReplySent
attr title "ARP replies sent, sum(packetBytes)"
scalar simpleNetwork.host[59].ipv4.arp arpRequestSent:count 0
attr source arpRequestSent
attr title "ARP request sent, count"
scalar simpleNetwork.host[59].ipv4.arp arpRequestSent:sum(packetBytes) 0
attr source arpRequestSent
attr title "ARP request sent, sum(packetBytes)"
scalar simpleNetwork.host[59].udp packetReceived:count 275
attr interpolationmode none
attr source packetReceived
attr title "packets received, count"
scalar simpleNetwork.host[59].udp packetReceived:sum(packetBytes) 8800
attr interpolationmode none
attr source packetReceived
attr title "packets received, sum(packetBytes)"
scalar simpleNetwork.host[59].udp packetSent:count 349
attr interpolationmode none
attr source packetSent
attr title "packets sent, count"
scalar simpleNetwork.host[59].udp packetSent:sum(packetBytes) 11168
attr interpolationmode none
attr source packetSent
attr title "packets sent, sum(packetBytes)"
scalar simpleNetwork.host[59].udp passedUpPk:count 275
attr interpolationmode none
attr source packetSentToUpper
attr title "packets passed up, count"
scalar simpleNetwork.host[59].udp droppedPkWrongPort:count 0
attr interpolationmode none
attr source packetDropReasonIsNoPortFound(packetDropped)
attr title "packets dropped (wrong port), count"
scalar simpleNetwork.host[59].udp droppedPkBadChecksum:count 0
attr interpolationmode none
attr source packetDropReasonIsIncorrectlyReceived(packetDropped)
attr title "packets dropped (checksum error), count"
scalar simpleNetwork.host[59].app[0] "Pings sent" 202
scalar simpleNetwork.host[59].app[0] "ping loss rate (%)" 100
scalar simpleNetwork.host[59].app[0] "ping out-of-order rate (%)" 0
scalar simpleNetwork.host[59].app[0] pingRxSeq:count 0
attr interpolationmode none
attr title "ping rx seq, count"
scalar simpleNetwork.host[59].app[0] pingTxSeq:count 202
attr interpolationmode none
attr title "ping tx seq, count"
scalar simpleNetwork.host[59].app[0] numOutOfOrderArrivals:last nan
attr interpolationmode none
attr title "ping out-of-order arrivals, last"
scalar simpleNetwork.host[59].app[0] numLost:last nan
attr interpolationmode none
attr title "pings lost, last"
statistic simpleNetwork.host[59].app[0] rtt:histogram
field count 0
field mean -nan
field stddev -nan
field min -nan
field max -nan
field sum 0
field sqrsum 0
attr interpolationmode none
attr title "ping round-trip time, histogram"
attr unit s
bin	-inf	0
bin	0	0
bin	1	0
scalar simpleNetwork.host[59].routing nodeEndingSignal:count 0
attr interpolationmode none
attr title "Node end, count"
scalar simpleNetwork.host[59].routing nodeEndingSignal:max -nan
attr interpolationmode none
attr title "Node end, max"
scalar simpleNetwork.host[59].routing nodeEndingSignal:last nan
attr interpolationmode none
attr title "Node end, last"
scalar simpleNetwork.host[59].routing batteryDecaySignal:count 2037
attr interpolationmode none
attr title "Battery decay, count"
scalar simpleNetwork.host[59].routing batteryDecaySignal:max 88
attr interpolationmode none
attr title "Battery decay, max"
scalar simpleNetwork.host[59].routing batteryDecaySignal:last 7
attr interpolationmode none
attr title "Battery decay, last"
scalar simpleNetwork.host[59].routing powerThreshSignal:count 0
attr interpolationmode none
attr title "Power thresh, count"
scalar simpleNetwork.host[59].routing powerThreshSignal:max -nan
attr interpolationmode none
attr title "Power thresh, max"
scalar simpleNetwork.host[59].routing powerThreshSignal:last nan
attr interpolationmode none
attr title "Power thresh, last"
scalar simpleNetwork.host[59].routing distSignal:count 0
attr interpolationmode none
attr title "Distance from sender to destination, count"
scalar simpleNetwork.host[59].routing distSignal:max -nan
attr interpolationmode none
attr title "Distance from sender to destination, max"
scalar simpleNetwork.host[59].routing distSignal:last nan
attr interpolationmode none
attr title "Distance from sender to destination, last"
scalar simpleNetwork.host[59].routing sentBrapMsgSignal:count 98
attr interpolationmode none
attr title "Number of CAIN BRAP messages sent, count"
scalar simpleNetwork.host[59].routing sentBrapMsgSignal:max 98
attr interpolationmode none
attr title "Number of CAIN BRAP messages sent, max"
scalar simpleNetwork.host[59].routing sentBrapMsgSignal:last 98
attr interpolationmode none
attr title "Number of CAIN BRAP messages sent, last"
scalar simpleNetwork.host[59].routing recBrapMsgSignal:count 0
attr interpolationmode none
attr title "Number of CAIN BRAP messages received, count"
scalar simpleNetwork.host[59].routing recBrapMsgSignal:max -nan
attr interpolationmode none
attr title "Number of CAIN BRAP messages received, max"
scalar simpleNetwork.host[59].routing recBrapMsgSignal:last nan
attr interpolationmode none
attr title "Number of CAIN BRAP messages received, last"
scalar simpleNetwork.host[59].routing sentSprMsgSignal:count 0
attr interpolationmode none
attr title "Number of CAIN SPRAY messages sent, count"
scalar simpleNetwork.host[59].routing sentSprMsgSignal:max -nan
attr interpolationmode none
attr title "Number of CAIN SPRAY messages sent, max"
scalar simpleNetwork.host[59].routing sentSprMsgSignal:last nan
attr interpolationmode none
attr title "Number of CAIN SPRAY messages sent, last"
scalar simpleNetwork.host[59].routing recSprMsgSignal:count 0
attr interpolationmode none
attr title "Number of CAIN SPRAY messages received, count"
scalar simpleNetwork.host[59].routing recSprMsgSignal:max -nan
attr interpolationmode none
attr title "Number of CAIN SPRAY messages received, max"
scalar simpleNetwork.host[59].routing recSprMsgSignal:last nan
attr interpolationmode none
attr title "Number of CAIN SPRAY messages received, last"
scalar simpleNetwork.host[59].routing sentLarMsgSignal:count 0
attr interpolationmode none
attr title "Number of CAIN LAR messages sent, count"
scalar simpleNetwork.host[59].routing sentLarMsgSignal:max -nan
attr interpolationmode none
attr title "Number of CAIN LAR messages sent, max"
scalar simpleNetwork.host[59].routing sentLarMsgSignal:last nan
attr interpolationmode none
attr title "Number of CAIN LAR messages sent, last"
scalar simpleNetwork.host[59].routing recLarMsgSignal:count 0
attr interpolationmode none
attr title "Number of CAIN LAR messages received, count"
scalar simpleNetwork.host[59].routing recLarMsgSignal:max -nan
attr interpolationmode none
attr title "Number of CAIN LAR messages received, max"
scalar simpleNetwork.host[59].routing recLarMsgSignal:last nan
attr interpolationmode none
attr title "Number of CAIN LAR messages received, last"
scalar simpleNetwork.host[59].routing sentCainRREQFwdMsgSignal:count 0
attr interpolationmode none
attr title "Number of CAIN RREQFWD messages sent, count"
scalar simpleNetwork.host[59].routing sentCainRREQFwdMsgSignal:max -nan
attr interpolationmode none
attr title "Number of CAIN RREQFWD messages sent, max"
scalar simpleNetwork.host[59].routing sentCainRREQFwdMsgSignal:last nan
attr interpolationmode none
attr title "Number of CAIN RREQFWD messages sent, last"
scalar simpleNetwork.host[59].routing recCainRREQFwdMsgSignal:count 0
attr interpolationmode none
attr title "Number of CAIN RREQFWD messages received, count"
scalar simpleNetwork.host[59].routing recCainRREQFwdMsgSignal:max -nan
attr interpolationmode none
attr title "Number of CAIN RREQFWD messages received, max"
scalar simpleNetwork.host[59].routing recCainRREQFwdMsgSignal:last nan
attr interpolationmode none
attr title "Number of CAIN RREQFWD messages received, last"
scalar simpleNetwork.host[59].routing recCainRREPMsgSignal:count 0
attr interpolationmode none
attr title "Number of CAIN RREP messages received, count"
scalar simpleNetwork.host[59].routing recCainRREPMsgSignal:max -nan
attr interpolationmode none
attr title "Number of CAIN RREP messages received, max"
scalar simpleNetwork.host[59].routing recCainRREPMsgSignal:last nan
attr interpolationmode none
attr title "Number of CAIN RREP messages received, last"
scalar simpleNetwork.host[59].routing sentCainRREPMsgSignal:count 0
attr interpolationmode none
attr title "Number of CAIN RREP messages sent, count"
scalar simpleNetwork.host[59].routing sentCainRREPMsgSignal:max -nan
attr interpolationmode none
attr title "Number of CAIN RREP messages sent, max"
scalar simpleNetwork.host[59].routing sentCainRREPMsgSignal:last nan
attr interpolationmode none
attr title "Number of CAIN RREP messages sent, last"
scalar simpleNetwork.host[59].routing recCainRREQMsgSignal:count 0
attr interpolationmode none
attr title "Number of CAIN RREQ messages received, count"
scalar simpleNetwork.host[59].routing recCainRREQMsgSignal:max -nan
attr interpolationmode none
attr title "Number of CAIN RREQ messages received, max"
scalar simpleNetwork.host[59].routing recCainRREQMsgSignal:last nan
attr interpolationmode none
attr title "Number of CAIN RREQ messages received, last"
scalar simpleNetwork.host[59].routing sentCainRREQMsgSignal:count 0
attr interpolationmode none
attr title "Number of CAIN RREQ messages sent, count"
scalar simpleNetwork.host[59].routing sentCainRREQMsgSignal:max -nan
attr interpolationmode none
attr title "Number of CAIN RREQ messages sent, max"
scalar simpleNetwork.host[59].routing sentCainRREQMsgSignal:last nan
attr interpolationmode none
attr title "Number of CAIN RREQ messages sent, last"
scalar simpleNetwork.host[59].routing recCainErrMsgSignal:count 0
attr interpolationmode none
attr title "Number of CAIN ERR messages received, count"
scalar simpleNetwork.host[59].routing recCainErrMsgSignal:max -nan
attr interpolationmode none
attr title "Number of CAIN ERR messages received, max"
scalar simpleNetwork.host[59].routing recCainErrMsgSignal:last nan
attr interpolationmode none
attr title "Number of CAIN ERR messages received, last"
scalar simpleNetwork.host[59].routing sentCainErrMsgSignal:count 0
attr interpolationmode none
attr title "Number of CAIN ERR messages sent, count"
scalar simpleNetwork.host[59].routing sentCainErrMsgSignal:max -nan
attr interpolationmode none
attr title "Number of CAIN ERR messages sent, max"
scalar simpleNetwork.host[59].routing sentCainErrMsgSignal:last nan
attr interpolationmode none
attr title "Number of CAIN ERR messages sent, last"
scalar simpleNetwork.host[59].routing recCainHopMsgSignal:count 0
attr interpolationmode none
attr title "Number of CAIN HOP messages received, count"
scalar simpleNetwork.host[59].routing recCainHopMsgSignal:max -nan
attr interpolationmode none
attr title "Number of CAIN HOP messages received, max"
scalar simpleNetwork.host[59].routing recCainHopMsgSignal:last nan
attr interpolationmode none
attr title "Number of CAIN HOP messages received, last"
scalar simpleNetwork.host[59].routing sentCainHopMsgSignal:count 0
attr interpolationmode none
attr title "Number of CAIN HOP messages sent, count"
scalar simpleNetwork.host[59].routing sentCainHopMsgSignal:max -nan
attr interpolationmode none
attr title "Number of CAIN HOP messages sent, max"
scalar simpleNetwork.host[59].routing sentCainHopMsgSignal:last nan
attr interpolationmode none
attr title "Number of CAIN HOP messages sent, last"
scalar simpleNetwork.host[59].routing recCainRespMsgSignal:count 0
attr interpolationmode none
attr title "Number of CAIN RESP messages received, count"
scalar simpleNetwork.host[59].routing recCainRespMsgSignal:max -nan
attr interpolationmode none
attr title "Number of CAIN RESP messages received, max"
scalar simpleNetwork.host[59].routing recCainRespMsgSignal:last nan
attr interpolationmode none
attr title "Number of CAIN RESP messages received, last"
scalar simpleNetwork.host[59].routing sentCainRespMsgSignal:count 0
attr interpolationmode none
attr title "Number of CAIN RESP messages sent, count"
scalar simpleNetwork.host[59].routing sentCainRespMsgSignal:max -nan
attr interpolationmode none
attr title "Number of CAIN RESP messages sent, max"
scalar simpleNetwork.host[59].routing sentCainRespMsgSignal:last nan
attr interpolationmode none
attr title "Number of CAIN RESP messages sent, last"
scalar simpleNetwork.host[59].routing recCainReqMsgSignal:count 0
attr interpolationmode none
attr title "Number of CAIN REQ messages received, count"
scalar simpleNetwork.host[59].routing recCainReqMsgSignal:max -nan
attr interpolationmode none
attr title "Number of CAIN REQ messages received, max"
scalar simpleNetwork.host[59].routing recCainReqMsgSignal:last nan
attr interpolationmode none
attr title "Number of CAIN REQ messages received, last"
scalar simpleNetwork.host[59].routing sentCainReqMsgSignal:count 0
attr interpolationmode none
attr title "Number of CAIN REQ messages sent, count"
scalar simpleNetwork.host[59].routing sentCainReqMsgSignal:max -nan
attr interpolationmode none
attr title "Number of CAIN REQ messages sent, max"
scalar simpleNetwork.host[59].routing sentCainReqMsgSignal:last nan
attr interpolationmode none
attr title "Number of CAIN REQ messages sent, last"
scalar simpleNetwork.host[59].routing sentCainFwdMsgSignal:count 0
attr interpolationmode none
attr title "Number of CAIN FWD message sent, count"
scalar simpleNetwork.host[59].routing sentCainFwdMsgSignal:max -nan
attr interpolationmode none
attr title "Number of CAIN FWD message sent, max"
scalar simpleNetwork.host[59].routing sentCainFwdMsgSignal:last nan
attr interpolationmode none
attr title "Number of CAIN FWD message sent, last"
scalar simpleNetwork.host[59].routing recCainFwdMsgSignal:mean -nan
attr interpolationmode none
attr title "Number of CAIN FWD message received, mean"
scalar simpleNetwork.host[59].routing recCainFwdMsgSignal:count 0
attr interpolationmode none
attr title "Number of CAIN FWD message received, count"
scalar simpleNetwork.host[59].routing recCainFwdMsgSignal:max -nan
attr interpolationmode none
attr title "Number of CAIN FWD message received, max"
scalar simpleNetwork.host[59].routing recCainFwdMsgSignal:last nan
attr interpolationmode none
attr title "Number of CAIN FWD message received, last"
scalar simpleNetwork.host[59].routing cainMsgSignal:count 0
attr interpolationmode none
attr title "Number of CAIN messages received, count"
scalar simpleNetwork.host[59].routing cainMsgSignal:max -nan
attr interpolationmode none
attr title "Number of CAIN messages received, max"
scalar simpleNetwork.host[59].routing cainMsgSignal:last nan
attr interpolationmode none
attr title "Number of CAIN messages received, last"
scalar simpleNetwork.host[59].routing connectedDevsSignal:count 0
attr interpolationmode none
attr title "Number of connected devices to a CH, count"
scalar simpleNetwork.host[59].routing connectedDevsSignal:max -nan
attr interpolationmode none
attr title "Number of connected devices to a CH, max"
scalar simpleNetwork.host[59].routing connectedDevsSignal:last nan
attr interpolationmode none
attr title "Number of connected devices to a CH, last"

